/*--------------------------------*- C++ -*----------------------------------*\
| =========                 |                                                 |
| \\      /  F ield         | OpenFOAM: The Open Source CFD Toolbox           |
|  \\    /   O peration     | Version:  2412                                  |
|   \\  /    A nd           | Website:  www.openfoam.com                      |
|    \\/     M anipulation  |                                                 |
\*---------------------------------------------------------------------------*/
FoamFile
{
    version     2.0;
    format      ascii;
    arch        "LSB;label=32;scalar=64";
    class       featureEdgeMesh;
    location    "constant/triSurface";
    object      MeshRefinement.eMesh;
}
// * * * * * * * * * * * * * * * * * * * * * * * * * * * * * * * * * * * * * //


// points:

100
(
(-0.242705091834068 3 0.176335573196411)
(-0.262892007827759 3 0.144526109099388)
(-0.21869058907032 3 0.205364137887955)
(-0.278932958841324 3 0.110437363386154)
(-0.290574938058853 3 0.0746069625020027)
(-0.127733781933784 3 0.271448105573654)
(-0.160748034715652 3 0.253298372030258)
(-0.092705100774765 3 0.285316944122314)
(-0.0562143921852112 3 0.294686198234558)
(-0.191227197647095 3 0.231153979897499)
(-0.0188371557742357 3 0.29940801858902)
(-0.297634392976761 3 -0.0375999733805656)
(-0.290574938058853 3 -0.0746069625020027)
(-0.300000011920929 3 1.69520854195445e-15)
(-0.297634392976761 3 0.0375999733805656)
(0.0188371557742357 3 0.29940801858902)
(0.0562143921852112 3 0.294686198234558)
(0.092705100774765 3 0.285316944122314)
(-0.278932958841324 3 -0.110437363386154)
(-0.262892007827759 3 -0.144526109099388)
(0.127733781933784 3 0.271448105573654)
(0.160748034715652 3 0.253298372030258)
(-0.160748034715652 3 -0.253298372030258)
(-0.127733781933784 3 -0.271448105573654)
(-0.191227197647095 3 -0.231153979897499)
(-0.21869058907032 3 -0.205364137887955)
(0.191227197647095 3 0.231153979897499)
(0.21869058907032 3 0.205364137887955)
(0.242705091834068 3 0.176335573196411)
(0.262892007827759 3 0.144526109099388)
(0.278932958841324 3 0.110437363386154)
(0.290574938058853 3 0.0746069625020027)
(0.297634392976761 3 0.0375999733805656)
(0.300000011920929 3 1.40526757592252e-15)
(-0.0188371557742357 3 -0.29940801858902)
(0.0188371557742357 3 -0.29940801858902)
(-0.0562143921852112 3 -0.294686198234558)
(0.297634392976761 3 -0.0375999733805656)
(0.0562143921852112 3 -0.294686198234558)
(0.092705100774765 3 -0.285316944122314)
(-0.092705100774765 3 -0.285316944122314)
(-0.242705091834068 3 -0.176335573196411)
(0.290574938058853 3 -0.0746069625020027)
(0.278932958841324 3 -0.110437363386154)
(0.127733781933784 3 -0.271448105573654)
(0.160748034715652 3 -0.253298372030258)
(0.262892007827759 3 -0.144526109099388)
(0.242705091834068 3 -0.176335573196411)
(0.191227197647095 3 -0.231153979897499)
(0.21869058907032 3 -0.205364137887955)
(-0.262892007827759 -3 0.144526109099388)
(-0.242705091834068 -3 0.176335573196411)
(-0.21869058907032 -3 0.205364137887955)
(-0.290574938058853 -3 0.0746069625020027)
(-0.278932958841324 -3 0.110437363386154)
(-0.160748034715652 -3 0.253298372030258)
(-0.127733781933784 -3 0.271448105573654)
(-0.092705100774765 -3 0.285316944122314)
(-0.0562143921852112 -3 0.294686198234558)
(-0.191227197647095 -3 0.231153979897499)
(-0.0188371557742357 -3 0.29940801858902)
(-0.290574938058853 -3 -0.0746069625020027)
(-0.297634392976761 -3 -0.0375999733805656)
(-0.300000011920929 -3 3.62940885934479e-16)
(-0.297634392976761 -3 0.0375999733805656)
(0.0188371557742357 -3 0.29940801858902)
(0.0562143921852112 -3 0.294686198234558)
(0.092705100774765 -3 0.285316944122314)
(-0.262892007827759 -3 -0.144526109099388)
(-0.278932958841324 -3 -0.110437363386154)
(0.127733781933784 -3 0.271448105573654)
(0.160748034715652 -3 0.253298372030258)
(-0.127733781933784 -3 -0.271448105573654)
(-0.160748034715652 -3 -0.253298372030258)
(-0.191227197647095 -3 -0.231153979897499)
(-0.21869058907032 -3 -0.205364137887955)
(0.191227197647095 -3 0.231153979897499)
(0.21869058907032 -3 0.205364137887955)
(0.242705091834068 -3 0.176335573196411)
(0.262892007827759 -3 0.144526109099388)
(0.278932958841324 -3 0.110437363386154)
(0.290574938058853 -3 0.0746069625020027)
(0.297634392976761 -3 0.0375999733805656)
(0.300000011920929 -3 7.30000059293399e-17)
(0.0188371557742357 -3 -0.29940801858902)
(-0.0188371557742357 -3 -0.29940801858902)
(-0.0562143921852112 -3 -0.294686198234558)
(0.297634392976761 -3 -0.0375999733805656)
(0.092705100774765 -3 -0.285316944122314)
(0.0562143921852112 -3 -0.294686198234558)
(-0.092705100774765 -3 -0.285316944122314)
(-0.242705091834068 -3 -0.176335573196411)
(0.290574938058853 -3 -0.0746069625020027)
(0.278932958841324 -3 -0.110437363386154)
(0.160748034715652 -3 -0.253298372030258)
(0.127733781933784 -3 -0.271448105573654)
(0.262892007827759 -3 -0.144526109099388)
(0.242705091834068 -3 -0.176335573196411)
(0.191227197647095 -3 -0.231153979897499)
(0.21869058907032 -3 -0.205364137887955)
)


// edges:

100
(
(0 1)
(2 0)
(3 4)
(1 3)
(5 6)
(7 5)
(8 7)
(9 2)
(6 9)
(10 8)
(11 12)
(13 11)
(14 13)
(15 10)
(16 15)
(17 16)
(18 19)
(12 18)
(4 14)
(20 17)
(21 20)
(22 23)
(24 22)
(25 24)
(26 21)
(27 26)
(28 27)
(29 28)
(30 29)
(31 30)
(32 31)
(33 32)
(34 35)
(36 34)
(37 33)
(38 39)
(35 38)
(40 36)
(23 40)
(41 25)
(19 41)
(42 37)
(43 42)
(44 45)
(39 44)
(46 43)
(47 46)
(45 48)
(49 47)
(48 49)
(50 51)
(51 52)
(53 54)
(54 50)
(55 56)
(56 57)
(57 58)
(52 59)
(59 55)
(58 60)
(61 62)
(62 63)
(63 64)
(60 65)
(65 66)
(66 67)
(68 69)
(69 61)
(64 53)
(67 70)
(70 71)
(72 73)
(73 74)
(74 75)
(71 76)
(76 77)
(77 78)
(78 79)
(79 80)
(80 81)
(81 82)
(82 83)
(84 85)
(85 86)
(83 87)
(88 89)
(89 84)
(86 90)
(90 72)
(75 91)
(91 68)
(87 92)
(92 93)
(94 95)
(95 88)
(93 96)
(96 97)
(98 94)
(97 99)
(99 98)
)

// * * * * * * * * * * * * * * * * * * * * * * * * * * * * * * * * * * * * * //


// ************************************************************************* //
