/*--------------------------------*- C++ -*----------------------------------*\
| =========                 |                                                 |
| \\      /  F ield         | OpenFOAM: The Open Source CFD Toolbox           |
|  \\    /   O peration     | Version:  2412                                  |
|   \\  /    A nd           | Website:  www.openfoam.com                      |
|    \\/     M anipulation  |                                                 |
\*---------------------------------------------------------------------------*/
FoamFile
{
    version     2.0;
    format      ascii;
    arch        "LSB;label=32;scalar=64";
    class       extendedFeatureEdgeMesh;
    location    "constant/extendedFeatureEdgeMesh";
    object      Cut_Geometry.extendedFeatureEdgeMesh;
}
// * * * * * * * * * * * * * * * * * * * * * * * * * * * * * * * * * * * * * //

// points

300
(
(-18.4923191070557 24 15.2981758117676)
(-17.495246887207 24 16.4291305541992)
(-16.4291305541992 24 17.495246887207)
(-20.2638702392578 24 12.859842300415)
(-19.4164085388184 24 14.1068458557129)
(-21.0313587188721 24 11.5620880126953)
(-14.1068458557129 24 19.4164085388184)
(-12.859842300415 24 20.2638702392578)
(-11.5620880126953 24 21.0313587188721)
(-10.2187032699585 24 21.7158489227295)
(-15.2981758117676 24 18.4923191070557)
(-22.3146343231201 24 8.83498954772949)
(-21.7158489227295 24 10.2187032699585)
(-22.8253555297852 24 7.41640758514404)
(-8.83498954772949 24 22.3146343231201)
(-7.41640758514404 24 22.8253555297852)
(-23.2459964752197 24 5.96855735778809)
(-23.574893951416 24 4.49715137481689)
(-5.96855735778809 24 23.2459964752197)
(-4.49715137481689 24 23.574893951416)
(-3.00799751281738 24 23.8107528686523)
(-23.9526405334473 24 1.50697243213654)
(-23.8107528686523 24 3.00799751281738)
(-24 24 6.90033018788463e-14)
(-23.9526405334473 24 -1.50697243213654)
(-1.50697243213654 24 23.9526405334473)
(-4.40872856342749e-15 24 24)
(1.50697243213654 24 23.9526405334473)
(-23.574893951416 24 -4.49715137481689)
(-23.8107528686523 24 -3.00799751281738)
(-22.3146343231201 24 -8.83498954772949)
(-22.8253555297852 24 -7.41640758514404)
(-23.2459964752197 24 -5.96855735778809)
(3.00799751281738 24 23.8107528686523)
(4.49715137481689 24 23.574893951416)
(5.96855735778809 24 23.2459964752197)
(7.41640758514404 24 22.8253555297852)
(-21.0313587188721 24 -11.5620880126953)
(-21.7158489227295 24 -10.2187032699585)
(8.83498954772949 24 22.3146343231201)
(10.2187032699585 24 21.7158489227295)
(11.5620880126953 24 21.0313587188721)
(12.859842300415 24 20.2638702392578)
(-20.2638702392578 24 -12.859842300415)
(14.1068458557129 24 19.4164085388184)
(15.2981758117676 24 18.4923191070557)
(16.4291305541992 24 17.495246887207)
(-17.495246887207 24 -16.4291305541992)
(-18.4923191070557 24 -15.2981758117676)
(-19.4164085388184 24 -14.1068458557129)
(-15.2981758117676 24 -18.4923191070557)
(-16.4291305541992 24 -17.495246887207)
(17.495246887207 24 16.4291305541992)
(18.4923191070557 24 15.2981758117676)
(19.4164085388184 24 14.1068458557129)
(-14.1068458557129 24 -19.4164085388184)
(20.2638702392578 24 12.859842300415)
(21.0313587188721 24 11.5620880126953)
(-10.2187032699585 24 -21.7158489227295)
(-11.5620880126953 24 -21.0313587188721)
(-12.859842300415 24 -20.2638702392578)
(21.7158489227295 24 10.2187032699585)
(22.3146343231201 24 8.83498954772949)
(-7.41640758514404 24 -22.8253555297852)
(-8.83498954772949 24 -22.3146343231201)
(-4.49715137481689 24 -23.574893951416)
(-5.96855735778809 24 -23.2459964752197)
(22.8253555297852 24 7.41640758514404)
(23.2459964752197 24 5.96855735778809)
(23.574893951416 24 4.49715137481689)
(-1.45176348021045e-14 24 -24)
(-1.50697243213654 24 -23.9526405334473)
(-3.00799751281738 24 -23.8107528686523)
(23.9526405334473 24 1.50697243213654)
(24 24 1.38719102461935e-14)
(23.8107528686523 24 3.00799751281738)
(23.9526405334473 24 -1.50697243213654)
(4.49715137481689 24 -23.574893951416)
(3.00799751281738 24 -23.8107528686523)
(1.50697243213654 24 -23.9526405334473)
(23.8107528686523 24 -3.00799751281738)
(5.96855735778809 24 -23.2459964752197)
(8.83498954772949 24 -22.3146343231201)
(7.41640758514404 24 -22.8253555297852)
(22.8253555297852 24 -7.41640758514404)
(22.3146343231201 24 -8.83498954772949)
(21.7158489227295 24 -10.2187032699585)
(23.574893951416 24 -4.49715137481689)
(23.2459964752197 24 -5.96855735778809)
(21.0313587188721 24 -11.5620880126953)
(12.859842300415 24 -20.2638702392578)
(11.5620880126953 24 -21.0313587188721)
(10.2187032699585 24 -21.7158489227295)
(14.1068458557129 24 -19.4164085388184)
(15.2981758117676 24 -18.4923191070557)
(20.2638702392578 24 -12.859842300415)
(19.4164085388184 24 -14.1068458557129)
(18.4923191070557 24 -15.2981758117676)
(17.495246887207 24 -16.4291305541992)
(16.4291305541992 24 -17.495246887207)
(-17.495246887207 -12 16.4291305541992)
(-18.4923191070557 -12 15.2981758117676)
(-16.4291305541992 -12 17.495246887207)
(-19.4164085388184 -12 14.1068458557129)
(-20.2638702392578 -12 12.859842300415)
(-21.0313587188721 -12 11.5620880126953)
(-12.859842300415 -12 20.2638702392578)
(-14.1068458557129 -12 19.4164085388184)
(-11.5620880126953 -12 21.0313587188721)
(-10.2187032699585 -12 21.7158489227295)
(-15.2981758117676 -12 18.4923191070557)
(-21.7158489227295 -12 10.2187032699585)
(-22.3146343231201 -12 8.83498954772949)
(-22.8253555297852 -12 7.41640758514404)
(-8.83498954772949 -12 22.3146343231201)
(-7.41640758514404 -12 22.8253555297852)
(-23.2459964752197 -12 5.96855735778809)
(-23.574893951416 -12 4.49715137481689)
(-5.96855735778809 -12 23.2459964752197)
(-4.49715137481689 -12 23.574893951416)
(-3.00799751281738 -12 23.8107528686523)
(-23.8107528686523 -12 3.00799751281738)
(-23.9526405334473 -12 1.50697243213654)
(-24 -12 6.10096961015452e-14)
(-23.9526405334473 -12 -1.50697243213654)
(-1.50697243213654 -12 23.9526405334473)
(-4.40872856342749e-15 -12 24)
(1.50697243213654 -12 23.9526405334473)
(-23.8107528686523 -12 -3.00799751281738)
(-23.574893951416 -12 -4.49715137481689)
(-22.8253555297852 -12 -7.41640758514404)
(-22.3146343231201 -12 -8.83498954772949)
(-23.2459964752197 -12 -5.96855735778809)
(3.00799751281738 -12 23.8107528686523)
(4.49715137481689 -12 23.574893951416)
(5.96855735778809 -12 23.2459964752197)
(7.41640758514404 -12 22.8253555297852)
(-21.7158489227295 -12 -10.2187032699585)
(-21.0313587188721 -12 -11.5620880126953)
(10.2187032699585 -12 21.7158489227295)
(8.83498954772949 -12 22.3146343231201)
(11.5620880126953 -12 21.0313587188721)
(12.859842300415 -12 20.2638702392578)
(-20.2638702392578 -12 -12.859842300415)
(14.1068458557129 -12 19.4164085388184)
(15.2981758117676 -12 18.4923191070557)
(16.4291305541992 -12 17.495246887207)
(-18.4923191070557 -12 -15.2981758117676)
(-17.495246887207 -12 -16.4291305541992)
(-19.4164085388184 -12 -14.1068458557129)
(-16.4291305541992 -12 -17.495246887207)
(-15.2981758117676 -12 -18.4923191070557)
(18.4923191070557 -12 15.2981758117676)
(17.495246887207 -12 16.4291305541992)
(19.4164085388184 -12 14.1068458557129)
(-14.1068458557129 -12 -19.4164085388184)
(20.2638702392578 -12 12.859842300415)
(21.0313587188721 -12 11.5620880126953)
(-11.5620880126953 -12 -21.0313587188721)
(-10.2187032699585 -12 -21.7158489227295)
(-12.859842300415 -12 -20.2638702392578)
(21.7158489227295 -12 10.2187032699585)
(22.3146343231201 -12 8.83498954772949)
(-8.83498954772949 -12 -22.3146343231201)
(-7.41640758514404 -12 -22.8253555297852)
(-5.96855735778809 -12 -23.2459964752197)
(-4.49715137481689 -12 -23.574893951416)
(22.8253555297852 -12 7.41640758514404)
(23.2459964752197 -12 5.96855735778809)
(23.574893951416 -12 4.49715137481689)
(-1.50697243213654 -12 -23.9526405334473)
(-1.45176348021045e-14 -12 -24)
(-3.00799751281738 -12 -23.8107528686523)
(23.9526405334473 -12 1.50697243213654)
(23.8107528686523 -12 3.00799751281738)
(24 -12 5.87830489240881e-15)
(23.9526405334473 -12 -1.50697243213654)
(3.00799751281738 -12 -23.8107528686523)
(4.49715137481689 -12 -23.574893951416)
(1.50697243213654 -12 -23.9526405334473)
(23.8107528686523 -12 -3.00799751281738)
(5.96855735778809 -12 -23.2459964752197)
(7.41640758514404 -12 -22.8253555297852)
(8.83498954772949 -12 -22.3146343231201)
(22.3146343231201 -12 -8.83498954772949)
(22.8253555297852 -12 -7.41640758514404)
(21.7158489227295 -12 -10.2187032699585)
(23.574893951416 -12 -4.49715137481689)
(23.2459964752197 -12 -5.96855735778809)
(21.0313587188721 -12 -11.5620880126953)
(11.5620880126953 -12 -21.0313587188721)
(12.859842300415 -12 -20.2638702392578)
(10.2187032699585 -12 -21.7158489227295)
(14.1068458557129 -12 -19.4164085388184)
(15.2981758117676 -12 -18.4923191070557)
(19.4164085388184 -12 -14.1068458557129)
(20.2638702392578 -12 -12.859842300415)
(18.4923191070557 -12 -15.2981758117676)
(17.495246887207 -12 -16.4291305541992)
(16.4291305541992 -12 -17.495246887207)
(0.297634392976761 -3 -0.0375999733805656)
(0.300000011920929 -3 7.30000059293399e-17)
(0.300000011920929 3 1.40526757592252e-15)
(0.297634392976761 3 -0.0375999733805656)
(0.290574938058853 3 -0.0746069625020027)
(0.290574938058853 -3 -0.0746069625020027)
(0.278932958841324 3 -0.110437363386154)
(0.278932958841324 -3 -0.110437363386154)
(0.262892007827759 3 -0.144526109099388)
(0.262892007827759 -3 -0.144526109099388)
(0.242705091834068 3 -0.176335573196411)
(0.242705091834068 -3 -0.176335573196411)
(0.21869058907032 3 -0.205364137887955)
(0.21869058907032 -3 -0.205364137887955)
(0.191227197647095 3 -0.231153979897499)
(0.160748034715652 3 -0.253298372030258)
(0.191227197647095 -3 -0.231153979897499)
(0.160748034715652 -3 -0.253298372030258)
(0.127733781933784 3 -0.271448105573654)
(0.092705100774765 3 -0.285316944122314)
(0.127733781933784 -3 -0.271448105573654)
(0.092705100774765 -3 -0.285316944122314)
(0.0562143921852112 3 -0.294686198234558)
(0.0562143921852112 -3 -0.294686198234558)
(0.0188371557742357 3 -0.29940801858902)
(-0.0188371557742357 3 -0.29940801858902)
(0.0188371557742357 -3 -0.29940801858902)
(-0.0562143921852112 3 -0.294686198234558)
(-0.0188371557742357 -3 -0.29940801858902)
(-0.0562143921852112 -3 -0.294686198234558)
(-0.092705100774765 3 -0.285316944122314)
(-0.092705100774765 -3 -0.285316944122314)
(-0.127733781933784 3 -0.271448105573654)
(-0.127733781933784 -3 -0.271448105573654)
(-0.160748034715652 3 -0.253298372030258)
(-0.191227197647095 3 -0.231153979897499)
(-0.160748034715652 -3 -0.253298372030258)
(-0.191227197647095 -3 -0.231153979897499)
(-0.21869058907032 3 -0.205364137887955)
(-0.21869058907032 -3 -0.205364137887955)
(-0.242705091834068 3 -0.176335573196411)
(-0.242705091834068 -3 -0.176335573196411)
(-0.262892007827759 3 -0.144526109099388)
(-0.262892007827759 -3 -0.144526109099388)
(-0.278932958841324 3 -0.110437363386154)
(-0.278932958841324 -3 -0.110437363386154)
(-0.290574938058853 3 -0.0746069625020027)
(-0.290574938058853 -3 -0.0746069625020027)
(-0.297634392976761 3 -0.0375999733805656)
(-0.297634392976761 -3 -0.0375999733805656)
(-0.300000011920929 -3 3.62940885934479e-16)
(-0.300000011920929 3 1.69520854195445e-15)
(-0.297634392976761 3 0.0375999733805656)
(-0.297634392976761 -3 0.0375999733805656)
(-0.290574938058853 -3 0.0746069625020027)
(-0.290574938058853 3 0.0746069625020027)
(-0.278932958841324 3 0.110437363386154)
(-0.278932958841324 -3 0.110437363386154)
(-0.262892007827759 -3 0.144526109099388)
(-0.262892007827759 3 0.144526109099388)
(-0.242705091834068 3 0.176335573196411)
(-0.242705091834068 -3 0.176335573196411)
(-0.21869058907032 -3 0.205364137887955)
(-0.21869058907032 3 0.205364137887955)
(-0.191227197647095 3 0.231153979897499)
(-0.191227197647095 -3 0.231153979897499)
(-0.160748034715652 3 0.253298372030258)
(-0.160748034715652 -3 0.253298372030258)
(-0.127733781933784 3 0.271448105573654)
(-0.092705100774765 3 0.285316944122314)
(-0.127733781933784 -3 0.271448105573654)
(-0.092705100774765 -3 0.285316944122314)
(-0.0562143921852112 3 0.294686198234558)
(-0.0188371557742357 3 0.29940801858902)
(-0.0562143921852112 -3 0.294686198234558)
(0.0188371557742357 3 0.29940801858902)
(-0.0188371557742357 -3 0.29940801858902)
(0.0188371557742357 -3 0.29940801858902)
(0.0562143921852112 3 0.294686198234558)
(0.092705100774765 3 0.285316944122314)
(0.0562143921852112 -3 0.294686198234558)
(0.092705100774765 -3 0.285316944122314)
(0.127733781933784 3 0.271448105573654)
(0.160748034715652 3 0.253298372030258)
(0.127733781933784 -3 0.271448105573654)
(0.160748034715652 -3 0.253298372030258)
(0.191227197647095 3 0.231153979897499)
(0.191227197647095 -3 0.231153979897499)
(0.21869058907032 3 0.205364137887955)
(0.21869058907032 -3 0.205364137887955)
(0.242705091834068 3 0.176335573196411)
(0.242705091834068 -3 0.176335573196411)
(0.262892007827759 3 0.144526109099388)
(0.278932958841324 3 0.110437363386154)
(0.262892007827759 -3 0.144526109099388)
(0.290574938058853 3 0.0746069625020027)
(0.278932958841324 -3 0.110437363386154)
(0.290574938058853 -3 0.0746069625020027)
(0.297634392976761 -3 0.0375999733805656)
(0.297634392976761 3 0.0375999733805656)
)

// edges

300
(
(0 1)
(1 2)
(3 4)
(4 0)
(5 3)
(6 7)
(7 8)
(8 9)
(10 6)
(11 12)
(12 5)
(13 11)
(2 10)
(9 14)
(14 15)
(16 13)
(17 16)
(15 18)
(18 19)
(19 20)
(21 22)
(22 17)
(23 21)
(24 23)
(20 25)
(25 26)
(26 27)
(28 29)
(29 24)
(30 31)
(31 32)
(32 28)
(27 33)
(33 34)
(34 35)
(35 36)
(37 38)
(38 30)
(39 40)
(40 41)
(41 42)
(43 37)
(36 39)
(42 44)
(44 45)
(45 46)
(47 48)
(48 49)
(49 43)
(50 51)
(51 47)
(52 53)
(53 54)
(55 50)
(54 56)
(56 57)
(46 52)
(58 59)
(59 60)
(57 61)
(61 62)
(63 64)
(64 58)
(60 55)
(65 66)
(66 63)
(62 67)
(67 68)
(68 69)
(70 71)
(71 72)
(73 74)
(75 73)
(72 65)
(74 76)
(69 75)
(77 78)
(78 79)
(79 70)
(76 80)
(81 77)
(82 83)
(83 81)
(84 85)
(85 86)
(80 87)
(87 88)
(88 84)
(86 89)
(90 91)
(91 92)
(92 82)
(93 90)
(94 93)
(95 96)
(96 97)
(97 98)
(89 95)
(99 94)
(98 99)
(100 101)
(102 100)
(103 104)
(101 103)
(104 105)
(106 107)
(108 106)
(109 108)
(107 110)
(111 112)
(105 111)
(112 113)
(110 102)
(114 109)
(115 114)
(113 116)
(116 117)
(118 115)
(119 118)
(120 119)
(121 122)
(117 121)
(122 123)
(123 124)
(125 120)
(126 125)
(127 126)
(128 129)
(124 128)
(130 131)
(132 130)
(129 132)
(133 127)
(134 133)
(135 134)
(136 135)
(137 138)
(131 137)
(139 140)
(141 139)
(142 141)
(138 143)
(140 136)
(144 142)
(145 144)
(146 145)
(147 148)
(149 147)
(143 149)
(150 151)
(148 150)
(152 153)
(154 152)
(151 155)
(156 154)
(157 156)
(153 146)
(158 159)
(160 158)
(161 157)
(162 161)
(163 164)
(159 163)
(155 160)
(165 166)
(164 165)
(167 162)
(168 167)
(169 168)
(170 171)
(172 170)
(173 174)
(175 173)
(166 172)
(176 175)
(174 169)
(177 178)
(179 177)
(171 179)
(180 176)
(178 181)
(182 183)
(181 182)
(184 185)
(186 184)
(187 180)
(188 187)
(185 188)
(189 186)
(190 191)
(192 190)
(183 192)
(191 193)
(193 194)
(195 196)
(197 195)
(198 197)
(196 189)
(194 199)
(199 198)
(200 201)
(202 203)
(203 204)
(205 200)
(204 206)
(207 205)
(206 208)
(209 207)
(208 210)
(211 209)
(210 212)
(213 211)
(212 214)
(214 215)
(216 213)
(217 216)
(215 218)
(218 219)
(220 217)
(221 220)
(219 222)
(223 221)
(222 224)
(224 225)
(226 223)
(225 227)
(228 226)
(229 228)
(227 230)
(231 229)
(230 232)
(233 231)
(232 234)
(234 235)
(236 233)
(237 236)
(235 238)
(239 237)
(238 240)
(241 239)
(240 242)
(243 241)
(242 244)
(245 243)
(244 246)
(247 245)
(246 248)
(249 247)
(250 249)
(248 251)
(251 252)
(253 250)
(254 253)
(252 255)
(255 256)
(257 254)
(258 257)
(256 259)
(259 260)
(261 258)
(262 261)
(260 263)
(263 264)
(265 262)
(264 266)
(267 265)
(266 268)
(268 269)
(270 267)
(271 270)
(269 272)
(272 273)
(274 271)
(273 275)
(276 274)
(277 276)
(275 278)
(278 279)
(280 277)
(281 280)
(279 282)
(282 283)
(284 281)
(285 284)
(283 286)
(287 285)
(286 288)
(289 287)
(288 290)
(291 289)
(290 292)
(292 293)
(294 291)
(293 295)
(296 294)
(297 296)
(298 297)
(295 299)
(201 298)
(299 202)
)

// concaveStart mixedStart nonFeatureStart
0 0 0
// internalStart flatStart openStart multipleStart
200 300 300 300
// normals

506
(
(0 1 0)
(-0.750110578810047 0 0.661312422049712)
(-0.707106781186548 0 0.707106781186548)
(0 1 0)
(-0.827080895139827 0 0.56208290571294)
(-0.79015527128543 0 0.612906719868406)
(0 1 0)
(-0.86074239510603 0 0.509040793323221)
(0 1 0)
(-0.56208290571294 0 0.827080895139827)
(-0.509040793323221 0 0.86074239510603)
(0 1 0)
(-0.453991283761166 0 0.891006124708965)
(0 1 0)
(-0.612906719868406 0 0.79015527128543)
(0 1 0)
(-0.917754866710829 0 0.397147333654136)
(-0.891006124708965 0 0.453991283761166)
(0 1 0)
(-0.940880711001961 0 0.338738081213856)
(0 1 0)
(-0.661312422049712 0 0.750110578810047)
(0 1 0)
(-0.397147333654136 0 0.917754866710829)
(-0.338738081213856 0 0.940880711001961)
(0 1 0)
(-0.96029340672009 0 0.278992066213223)
(0 1 0)
(-0.975916864745135 0 0.218142781466694)
(0 1 0)
(-0.278992066213223 0 0.96029340672009)
(0 1 0)
(-0.218142781466694 0 0.975916864745135)
(-0.156434540254418 0 0.987688328682378)
(0 1 0)
(-0.995562025539826 0 0.0941076686728481)
(-0.987688328682378 0 0.156434540254418)
(0 1 0)
(-0.99950654058404 0 0.0314113885354357)
(0 1 -0)
(-0.99950654058404 7.15906171345235e-18 -0.0314113885354328)
(0 1 0)
(-0.0941076686728481 0 0.995562025539826)
(0 1 0)
(-0.0314113885354344 0 0.99950654058404)
(0.0314113885354342 0 0.99950654058404)
(0 1 0)
(-0.987688328682378 0 -0.156434540254418)
(-0.995562025539826 -0 -0.0941076686728481)
(0 1 0)
(-0.940880711001961 -0 -0.338738081213856)
(-0.96029340672009 0 -0.278992066213223)
(0 1 0)
(-0.975916864745135 -0 -0.218142781466694)
(0 1 0)
(0.0941076686728481 0 0.995562025539826)
(0 1 0)
(0.156434540254418 0 0.987688328682378)
(0 1 0)
(0.218142781466694 0 0.975916864745135)
(0 1 0)
(0.278992066213223 0 0.96029340672009)
(0 1 0)
(-0.891006124708965 0 -0.453991283761166)
(-0.917754866710829 0 -0.397147333654136)
(0 1 0)
(0.397147333654136 0 0.917754866710829)
(0 1 0)
(0.453991283761166 0 0.891006124708965)
(0.509040793323221 0 0.86074239510603)
(0 1 0)
(-0.86074239510603 0 -0.509040793323221)
(0 1 0)
(0.338738081213856 0 0.940880711001961)
(0 1 0)
(0.56208290571294 0 0.827080895139827)
(0 1 0)
(0.612906719868406 0 0.79015527128543)
(0.661312422049712 0 0.750110578810047)
(0 1 0)
(-0.750110578810047 0 -0.661312422049712)
(-0.79015527128543 -0 -0.612906719868406)
(0 1 0)
(-0.827080895139827 0 -0.56208290571294)
(0 1 0)
(-0.661312422049712 0 -0.750110578810047)
(-0.707106781186548 0 -0.707106781186548)
(0 1 0)
(0.750110578810047 0 0.661312422049712)
(0.79015527128543 0 0.612906719868406)
(0 1 0)
(-0.612906719868406 0 -0.79015527128543)
(0 1 0)
(0.827080895139827 0 0.56208290571294)
(0 1 0)
(0.86074239510603 0 0.509040793323221)
(0 1 0)
(0.707106781186548 0 0.707106781186548)
(0 1 0)
(-0.453991283761166 -0 -0.891006124708965)
(-0.509040793323221 0 -0.86074239510603)
(0 1 0)
(0.891006124708965 0 0.453991283761166)
(0.917754866710829 0 0.397147333654136)
(0 1 0)
(-0.338738081213856 0 -0.940880711001961)
(-0.397147333654136 0 -0.917754866710829)
(0 1 0)
(-0.56208290571294 -0 -0.827080895139827)
(0 1 0)
(-0.218142781466694 0 -0.975916864745135)
(-0.278992066213223 -0 -0.96029340672009)
(0 1 0)
(0.940880711001961 0 0.338738081213856)
(0 1 0)
(0.96029340672009 0 0.278992066213223)
(0 1 0)
(0.975916864745135 0 0.218142781466694)
(0 1 0)
(-0.0314113885354346 0 -0.99950654058404)
(-0.0941076686728481 -0 -0.995562025539826)
(0 1 0)
(0.99950654058404 0 0.0314113885354346)
(0.995562025539826 0 0.0941076686728481)
(0 1 0)
(-0.156434540254418 -0 -0.987688328682378)
(0 1 -0)
(0.99950654058404 6.97472898796264e-18 -0.031411388535434)
(0 1 0)
(0.987688328682378 0 0.156434540254418)
(0 1 0)
(0.156434540254418 0 -0.987688328682378)
(0.0941076686728481 0 -0.995562025539826)
(0 1 0)
(0.031411388535434 0 -0.99950654058404)
(0 1 0)
(0.995562025539826 0 -0.0941076686728481)
(0 1 0)
(0.218142781466694 0 -0.975916864745135)
(0 1 0)
(0.338738081213856 0 -0.940880711001961)
(0.278992066213223 0 -0.96029340672009)
(0 1 0)
(0.940880711001961 0 -0.338738081213856)
(0.917754866710829 0 -0.397147333654136)
(0 1 0)
(0.987688328682378 0 -0.156434540254418)
(0 1 0)
(0.975916864745135 0 -0.218142781466694)
(0 1 0)
(0.96029340672009 0 -0.278992066213223)
(0 1 0)
(0.891006124708965 0 -0.453991283761166)
(0 1 0)
(0.509040793323221 0 -0.86074239510603)
(0.453991283761166 0 -0.891006124708965)
(0 1 0)
(0.397147333654136 0 -0.917754866710829)
(0 1 0)
(0.56208290571294 0 -0.827080895139827)
(0 1 0)
(0.612906719868406 0 -0.79015527128543)
(0 1 0)
(0.827080895139827 0 -0.56208290571294)
(0 1 0)
(0.79015527128543 0 -0.612906719868406)
(0.750110578810047 0 -0.661312422049712)
(0 1 0)
(0.86074239510603 0 -0.509040793323221)
(0 1 0)
(0.661312422049712 0 -0.750110578810047)
(0 1 0)
(0.707106781186548 0 -0.707106781186548)
(0 -1 -0)
(-0.750110578810047 0 0.661312422049712)
(-0.707106781186548 0 0.707106781186548)
(0 -1 -0)
(-0.827080895139827 0 0.56208290571294)
(-0.79015527128543 0 0.612906719868406)
(0 -1 -0)
(-0.86074239510603 0 0.509040793323221)
(0 -1 0)
(-0.56208290571294 0 0.827080895139827)
(-0.509040793323221 0 0.86074239510603)
(0 -1 0)
(-0.453991283761166 0 0.891006124708965)
(0 -1 0)
(-0.612906719868406 0 0.79015527128543)
(0 -1 -0)
(-0.917754866710829 0 0.397147333654136)
(-0.891006124708965 0 0.453991283761166)
(0 -1 -0)
(-0.940880711001961 0 0.338738081213856)
(0 -1 0)
(-0.661312422049712 0 0.750110578810047)
(0 -1 0)
(-0.397147333654136 0 0.917754866710829)
(-0.338738081213856 0 0.940880711001961)
(0 -1 -0)
(-0.96029340672009 0 0.278992066213223)
(0 -1 0)
(-0.975916864745135 0 0.218142781466694)
(0 -1 0)
(-0.278992066213223 0 0.96029340672009)
(0 -1 0)
(-0.218142781466694 0 0.975916864745135)
(-0.156434540254418 0 0.987688328682378)
(0 -1 -0)
(-0.995562025539826 0 0.0941076686728481)
(-0.987688328682378 0 0.156434540254418)
(0 -1 -0)
(-0.99950654058404 -6.97472935749745e-18 0.0314113885354356)
(0 -1 0)
(-0.99950654058404 0 -0.031411388535433)
(0 -1 0)
(-0.0941076686728481 0 0.995562025539826)
(0 -1 0)
(-0.0314113885354344 0 0.99950654058404)
(0.0314113885354342 0 0.99950654058404)
(0 -1 0)
(-0.987688328682378 0 -0.156434540254418)
(-0.995562025539826 0 -0.0941076686728481)
(0 -1 0)
(-0.940880711001961 0 -0.338738081213856)
(-0.96029340672009 0 -0.278992066213223)
(0 -1 0)
(-0.975916864745135 0 -0.218142781466694)
(0 -1 -0)
(0.0941076686728481 -0 0.995562025539826)
(0 -1 -0)
(0.156434540254418 0 0.987688328682378)
(0 -1 -0)
(0.218142781466694 -0 0.975916864745135)
(0 -1 -0)
(0.278992066213223 0 0.96029340672009)
(0 -1 0)
(-0.891006124708965 0 -0.453991283761166)
(-0.917754866710829 0 -0.397147333654136)
(0 -1 0)
(0.397147333654136 0 0.917754866710829)
(0 -1 0)
(0.453991283761166 -0 0.891006124708965)
(0.509040793323221 0 0.86074239510603)
(0 -1 0)
(-0.86074239510603 0 -0.509040793323221)
(0 -1 0)
(0.338738081213856 -0 0.940880711001961)
(0 -1 0)
(0.56208290571294 0 0.827080895139827)
(0 -1 0)
(0.612906719868406 -0 0.79015527128543)
(0.661312422049712 -0 0.750110578810047)
(0 -1 0)
(-0.750110578810047 0 -0.661312422049712)
(-0.79015527128543 0 -0.612906719868406)
(0 -1 0)
(-0.827080895139827 0 -0.56208290571294)
(0 -1 0)
(-0.661312422049712 0 -0.750110578810047)
(-0.707106781186548 0 -0.707106781186548)
(0 -1 0)
(0.750110578810047 0 0.661312422049712)
(0.79015527128543 -0 0.612906719868406)
(0 -1 0)
(-0.612906719868406 0 -0.79015527128543)
(0 -1 0)
(0.827080895139827 -0 0.56208290571294)
(0 -1 0)
(0.86074239510603 0 0.509040793323221)
(0 -1 0)
(0.707106781186548 0 0.707106781186548)
(0 -1 0)
(-0.453991283761166 0 -0.891006124708965)
(-0.509040793323221 0 -0.86074239510603)
(0 -1 0)
(0.891006124708965 0 0.453991283761166)
(0.917754866710829 -0 0.397147333654136)
(0 -1 0)
(-0.338738081213856 0 -0.940880711001961)
(-0.397147333654136 0 -0.917754866710829)
(0 -1 0)
(-0.56208290571294 0 -0.827080895139827)
(0 -1 0)
(-0.218142781466694 0 -0.975916864745135)
(-0.278992066213223 0 -0.96029340672009)
(0 -1 -0)
(0.940880711001961 -0 0.338738081213856)
(0 -1 -0)
(0.96029340672009 -0 0.278992066213223)
(0 -1 -0)
(0.975916864745135 0 0.218142781466694)
(0 -1 0)
(-0.0314113885354346 0 -0.99950654058404)
(-0.0941076686728481 0 -0.995562025539826)
(0 -1 0)
(0.995562025539826 -0 0.0941076686728481)
(0.99950654058404 -6.90338093797225e-18 0.0314113885354344)
(0 -1 0)
(-0.156434540254418 0 -0.987688328682378)
(0 -1 0)
(0.99950654058404 0 -0.0314113885354342)
(0 -1 0)
(0.987688328682378 0 0.156434540254418)
(-0 -1 0)
(0.156434540254418 0 -0.987688328682378)
(0.0941076686728481 0 -0.995562025539826)
(-0 -1 0)
(0.031411388535434 0 -0.99950654058404)
(0 -1 0)
(0.995562025539826 0 -0.0941076686728481)
(-0 -1 0)
(0.218142781466694 0 -0.975916864745135)
(-0 -1 0)
(0.338738081213856 0 -0.940880711001961)
(0.278992066213223 0 -0.96029340672009)
(0 -1 0)
(0.940880711001961 0 -0.338738081213856)
(0.917754866710829 0 -0.397147333654136)
(0 -1 0)
(0.987688328682378 0 -0.156434540254418)
(0 -1 0)
(0.975916864745135 0 -0.218142781466694)
(0 -1 0)
(0.96029340672009 0 -0.278992066213223)
(0 -1 0)
(0.891006124708965 0 -0.453991283761166)
(-0 -1 0)
(0.509040793323221 0 -0.86074239510603)
(0.453991283761166 0 -0.891006124708965)
(-0 -1 0)
(0.397147333654136 0 -0.917754866710829)
(-0 -1 0)
(0.56208290571294 0 -0.827080895139827)
(-0 -1 0)
(0.612906719868406 0 -0.79015527128543)
(0 -1 0)
(0.827080895139827 0 -0.56208290571294)
(0 -1 0)
(0.79015527128543 0 -0.612906719868406)
(0.750110578810047 0 -0.661312422049712)
(0 -1 0)
(0.86074239510603 0 -0.509040793323221)
(-0 -1 0)
(0.661312422049712 0 -0.750110578810047)
(0 -1 0)
(0.707106781186548 0 -0.707106781186548)
(-0.998026679973478 -1.39694584629963e-17 0.0627912896914642)
(0 1 0)
(-0.998026679973478 0 0.062791289691462)
(0 -1 0)
(-0.982287279116065 0 0.187381165773824)
(0 -1 0)
(-0.982287279116065 0 0.187381165773824)
(0 1 0)
(-0.951056701594305 0 0.309016424082219)
(-0.951056701594305 0 0.309016424082219)
(-0.904827002465199 0 0.425779397822209)
(0 -1 0)
(-0.904827002465199 0 0.425779397822209)
(0 1 -0)
(-0.844327730565112 0 0.535827102150281)
(0 -1 0)
(-0.844327730565112 0 0.535827102150281)
(0 1 0)
(-0.770513430990023 0 0.637423762236695)
(-0.770513430990023 0 0.637423762236695)
(-0.684547117796667 0 0.728968616276638)
(-0 -1 0)
(-0.587784975110368 0 0.809017195759462)
(-0.684547117796667 0 0.728968616276638)
(0 1 0)
(-0.587784975110368 0 0.809017195759462)
(-0.4817535617488 0 0.876306741810392)
(-0 -1 0)
(-0.368124611577613 0 0.929776462570887)
(-0.4817535617488 0 0.876306741810392)
(0 1 0)
(-0.368124611577613 0 0.929776462570887)
(-0.248690698648971 0 0.968582952774561)
(-0 -1 0)
(-0.248690698648971 0 0.968582952774561)
(0 1 0)
(-0.125332640774185 0 0.992114776201105)
(0 -0 1)
(0 -1 0)
(-0.125332640774185 0 0.992114776201105)
(0.125332640774185 -0 0.992114776201105)
(0 0 1)
(0 1 0)
(0.125332640774185 -0 0.992114776201105)
(0.248690698648971 -0 0.968582952774561)
(0 -1 0)
(0.248690698648971 0 0.968582952774561)
(0 1 0)
(0.368124611577613 -0 0.929776462570887)
(0.368124611577613 0 0.929776462570887)
(0.4817535617488 -0 0.876306741810392)
(0 -1 0)
(0.587784975110368 -0 0.809017195759462)
(0.4817535617488 0 0.876306741810392)
(0 1 0)
(0.587784975110368 -0 0.809017195759462)
(0.684547117796667 -0 0.728968616276638)
(0 -1 0)
(0.684547117796667 0 0.728968616276638)
(0 1 0)
(0.770513430990023 -0 0.637423762236695)
(0 -1 0)
(0.770513430990023 0 0.637423762236695)
(0 1 0)
(0.844327730565112 -0 0.535827102150281)
(0.844327730565112 0 0.535827102150281)
(0.904827002465199 -0 0.425779397822209)
(0 -1 0)
(0.904827002465199 0 0.425779397822209)
(0 1 0)
(0.951056701594305 -0 0.309016424082219)
(0.951056701594305 0 0.309016424082219)
(0.982287279116065 -0 0.187381165773824)
(0 -1 0)
(0.982287279116065 0 0.187381165773824)
(0 1 0)
(0.998026679973478 0 0.0627912896914637)
(0 1 -0)
(0.998026679973478 -1.39424673892857e-17 0.0627912896914615)
(0 -1 0)
(0.998026679973478 1.39424673892869e-17 -0.0627912896914671)
(0.998026679973478 0 -0.0627912896914649)
(0.982287279116065 0 -0.187381165773824)
(0 1 0)
(0.982287279116065 0 -0.187381165773824)
(0 -1 0)
(0.951056701594305 0 -0.309016424082219)
(0 -1 -0)
(0.951056701594305 0 -0.309016424082219)
(0 1 0)
(0.904827002465199 0 -0.425779397822209)
(0.904827002465199 0 -0.425779397822209)
(0.844327730565112 0 -0.535827102150281)
(0 -1 -0)
(0.844327730565112 0 -0.535827102150281)
(0 1 0)
(0.770513430990023 0 -0.637423762236695)
(0.770513430990023 0 -0.637423762236695)
(0.684547117796667 0 -0.728968616276638)
(0 -1 0)
(0.684547117796667 0 -0.728968616276638)
(0 1 0)
(0.587784975110368 0 -0.809017195759462)
(0.587784975110368 0 -0.809017195759462)
(0.4817535617488 0 -0.876306741810392)
(0 -1 0)
(0.368124611577613 0 -0.929776462570887)
(0 -1 0)
(0.4817535617488 0 -0.876306741810392)
(0 1 0)
(0.368124611577613 0 -0.929776462570887)
(0 1 0)
(0.248690698648971 0 -0.968582952774561)
(0.125332640774185 0 -0.992114776201105)
(0 -1 0)
(0.248690698648971 0 -0.968582952774561)
(0 0 -1)
(0 -1 0)
(0.125332640774185 0 -0.992114776201105)
(0 1 0)
(0 0 -1)
(0 1 0)
(-0.125332640774185 0 -0.992114776201105)
(0 -1 0)
(-0.248690698648971 0 -0.968582952774561)
(-0.125332640774185 0 -0.992114776201105)
(0 1 0)
(-0.248690698648971 0 -0.968582952774561)
(-0.368124611577613 0 -0.929776462570887)
(0 -1 0)
(-0.4817535617488 0 -0.876306741810392)
(0 -1 0)
(-0.368124611577613 0 -0.929776462570887)
(0 1 0)
(-0.4817535617488 0 -0.876306741810392)
(0 1 0)
(-0.587784975110368 0 -0.809017195759462)
(-0.587784975110368 0 -0.809017195759462)
(-0.684547117796667 0 -0.728968616276638)
(0 -1 0)
(-0.684547117796667 0 -0.728968616276638)
(0 1 0)
(-0.770513430990023 0 -0.637423762236695)
(-0.770513430990023 0 -0.637423762236695)
(-0.844327730565112 0 -0.535827102150281)
(0 -1 0)
(-0.904827002465199 0 -0.425779397822209)
(0 -1 0)
(-0.844327730565112 0 -0.535827102150281)
(0 1 0)
(-0.951056701594305 0 -0.309016424082219)
(-0.904827002465199 0 -0.425779397822209)
(0 1 0)
(-0.951056701594305 0 -0.309016424082219)
(-0.982287279116065 0 -0.187381165773824)
(0 1 0)
(-0.982287279116065 0 -0.187381165773824)
(0 -1 0)