/*--------------------------------*- C++ -*----------------------------------*\
| =========                 |                                                 |
| \\      /  F ield         | OpenFOAM: The Open Source CFD Toolbox           |
|  \\    /   O peration     | Version:  2412                                  |
|   \\  /    A nd           | Website:  www.openfoam.com                      |
|    \\/     M anipulation  |                                                 |
\*---------------------------------------------------------------------------*/
FoamFile
{
    version     2.0;
    format      ascii;
    arch        "LSB;label=32;scalar=64";
    class       extendedFeatureEdgeMesh;
    location    "constant/extendedFeatureEdgeMesh";
    object      Cut_Geometry.extendedFeatureEdgeMesh;
}
// * * * * * * * * * * * * * * * * * * * * * * * * * * * * * * * * * * * * * //

// points

342
(
(-17.495246887207 20 -16.4291305541992)
(-18.4923191070557 20 -15.2981758117676)
(-16.4291305541992 20 -17.495246887207)
(-19.4164085388184 20 -14.1068458557129)
(-20.2638702392578 20 -12.859842300415)
(-21.0313587188721 20 -11.5620880126953)
(-12.859842300415 20 -20.2638702392578)
(-14.1068458557129 20 -19.4164085388184)
(-11.5620880126953 20 -21.0313587188721)
(-10.2187032699585 20 -21.7158489227295)
(-15.2981758117676 20 -18.4923191070557)
(-21.7158489227295 20 -10.2187032699585)
(-22.3146343231201 20 -8.83498954772949)
(-22.8253555297852 20 -7.41640758514404)
(-8.83498954772949 20 -22.3146343231201)
(-7.41640758514404 20 -22.8253555297852)
(-23.2459964752197 20 -5.96855735778809)
(-23.574893951416 20 -4.49715137481689)
(-5.96855735778809 20 -23.2459964752197)
(-4.49715137481689 20 -23.574893951416)
(-3.00799751281738 20 -23.8107528686523)
(-23.8107528686523 20 -3.00799751281738)
(-23.9526405334473 20 -1.50697243213654)
(-24 20 -6.10096961015452e-14)
(-23.9526405334473 20 1.50697243213654)
(-1.50697243213654 20 -23.9526405334473)
(-4.40872856342749e-15 20 -24)
(1.50697243213654 20 -23.9526405334473)
(-23.8107528686523 20 3.00799751281738)
(-23.574893951416 20 4.49715137481689)
(-22.8253555297852 20 7.41640758514404)
(-22.3146343231201 20 8.83498954772949)
(-23.2459964752197 20 5.96855735778809)
(3.00799751281738 20 -23.8107528686523)
(4.49715137481689 20 -23.574893951416)
(5.96855735778809 20 -23.2459964752197)
(7.41640758514404 20 -22.8253555297852)
(-21.7158489227295 20 10.2187032699585)
(-21.0313587188721 20 11.5620880126953)
(10.2187032699585 20 -21.7158489227295)
(8.83498954772949 20 -22.3146343231201)
(11.5620880126953 20 -21.0313587188721)
(12.859842300415 20 -20.2638702392578)
(-20.2638702392578 20 12.859842300415)
(14.1068458557129 20 -19.4164085388184)
(15.2981758117676 20 -18.4923191070557)
(16.4291305541992 20 -17.495246887207)
(-18.4923191070557 20 15.2981758117676)
(-17.495246887207 20 16.4291305541992)
(-19.4164085388184 20 14.1068458557129)
(-16.4291305541992 20 17.495246887207)
(-15.2981758117676 20 18.4923191070557)
(18.4923191070557 20 -15.2981758117676)
(17.495246887207 20 -16.4291305541992)
(19.4164085388184 20 -14.1068458557129)
(-14.1068458557129 20 19.4164085388184)
(20.2638702392578 20 -12.859842300415)
(21.0313587188721 20 -11.5620880126953)
(-11.5620880126953 20 21.0313587188721)
(-10.2187032699585 20 21.7158489227295)
(-12.859842300415 20 20.2638702392578)
(21.7158489227295 20 -10.2187032699585)
(22.3146343231201 20 -8.83498954772949)
(-8.83498954772949 20 22.3146343231201)
(-7.41640758514404 20 22.8253555297852)
(-5.96855735778809 20 23.2459964752197)
(-4.49715137481689 20 23.574893951416)
(22.8253555297852 20 -7.41640758514404)
(23.2459964752197 20 -5.96855735778809)
(23.574893951416 20 -4.49715137481689)
(-1.50697243213654 20 23.9526405334473)
(-1.45176348021045e-14 20 24)
(-3.00799751281738 20 23.8107528686523)
(23.9526405334473 20 -1.50697243213654)
(23.8107528686523 20 -3.00799751281738)
(24 20 -5.87799996054779e-15)
(23.9526405334473 20 1.50697243213654)
(3.00799751281738 20 23.8107528686523)
(4.49715137481689 20 23.574893951416)
(1.50697243213654 20 23.9526405334473)
(23.8107528686523 20 3.00799751281738)
(5.96855735778809 20 23.2459964752197)
(7.41640758514404 20 22.8253555297852)
(8.83498954772949 20 22.3146343231201)
(22.3146343231201 20 8.83498954772949)
(22.8253555297852 20 7.41640758514404)
(21.7158489227295 20 10.2187032699585)
(23.574893951416 20 4.49715137481689)
(23.2459964752197 20 5.96855735778809)
(21.0313587188721 20 11.5620880126953)
(11.5620880126953 20 21.0313587188721)
(12.859842300415 20 20.2638702392578)
(10.2187032699585 20 21.7158489227295)
(14.1068458557129 20 19.4164085388184)
(15.2981758117676 20 18.4923191070557)
(19.4164085388184 20 14.1068458557129)
(20.2638702392578 20 12.859842300415)
(18.4923191070557 20 15.2981758117676)
(17.495246887207 20 16.4291305541992)
(16.4291305541992 20 17.495246887207)
(-18.4923191070557 -20 -15.2981758117676)
(-17.495246887207 -20 -16.4291305541992)
(-16.4291305541992 -20 -17.495246887207)
(-20.2638702392578 -20 -12.859842300415)
(-19.4164085388184 -20 -14.1068458557129)
(-21.0313587188721 -20 -11.5620880126953)
(-14.1068458557129 -20 -19.4164085388184)
(-12.859842300415 -20 -20.2638702392578)
(-11.5620880126953 -20 -21.0313587188721)
(-10.2187032699585 -20 -21.7158489227295)
(-15.2981758117676 -20 -18.4923191070557)
(-22.3146343231201 -20 -8.83498954772949)
(-21.7158489227295 -20 -10.2187032699585)
(-22.8253555297852 -20 -7.41640758514404)
(-8.83498954772949 -20 -22.3146343231201)
(-7.41640758514404 -20 -22.8253555297852)
(-23.2459964752197 -20 -5.96855735778809)
(-23.574893951416 -20 -4.49715137481689)
(-5.96855735778809 -20 -23.2459964752197)
(-4.49715137481689 -20 -23.574893951416)
(-3.00799751281738 -20 -23.8107528686523)
(-23.9526405334473 -20 -1.50697243213654)
(-23.8107528686523 -20 -3.00799751281738)
(-24 -20 -6.10096961015452e-14)
(-23.9526405334473 -20 1.50697243213654)
(-1.50697243213654 -20 -23.9526405334473)
(-4.40872856342749e-15 -20 -24)
(1.50697243213654 -20 -23.9526405334473)
(-23.574893951416 -20 4.49715137481689)
(-23.8107528686523 -20 3.00799751281738)
(-22.3146343231201 -20 8.83498954772949)
(-22.8253555297852 -20 7.41640758514404)
(-23.2459964752197 -20 5.96855735778809)
(3.00799751281738 -20 -23.8107528686523)
(4.49715137481689 -20 -23.574893951416)
(5.96855735778809 -20 -23.2459964752197)
(7.41640758514404 -20 -22.8253555297852)
(-21.0313587188721 -20 11.5620880126953)
(-21.7158489227295 -20 10.2187032699585)
(8.83498954772949 -20 -22.3146343231201)
(10.2187032699585 -20 -21.7158489227295)
(11.5620880126953 -20 -21.0313587188721)
(12.859842300415 -20 -20.2638702392578)
(-20.2638702392578 -20 12.859842300415)
(14.1068458557129 -20 -19.4164085388184)
(15.2981758117676 -20 -18.4923191070557)
(16.4291305541992 -20 -17.495246887207)
(-17.495246887207 -20 16.4291305541992)
(-18.4923191070557 -20 15.2981758117676)
(-19.4164085388184 -20 14.1068458557129)
(-15.2981758117676 -20 18.4923191070557)
(-16.4291305541992 -20 17.495246887207)
(17.495246887207 -20 -16.4291305541992)
(18.4923191070557 -20 -15.2981758117676)
(19.4164085388184 -20 -14.1068458557129)
(-14.1068458557129 -20 19.4164085388184)
(20.2638702392578 -20 -12.859842300415)
(21.0313587188721 -20 -11.5620880126953)
(-10.2187032699585 -20 21.7158489227295)
(-11.5620880126953 -20 21.0313587188721)
(-12.859842300415 -20 20.2638702392578)
(21.7158489227295 -20 -10.2187032699585)
(22.3146343231201 -20 -8.83498954772949)
(-7.41640758514404 -20 22.8253555297852)
(-8.83498954772949 -20 22.3146343231201)
(-4.49715137481689 -20 23.574893951416)
(-5.96855735778809 -20 23.2459964752197)
(22.8253555297852 -20 -7.41640758514404)
(23.2459964752197 -20 -5.96855735778809)
(23.574893951416 -20 -4.49715137481689)
(-1.45176348021045e-14 -20 24)
(-1.50697243213654 -20 23.9526405334473)
(-3.00799751281738 -20 23.8107528686523)
(23.9526405334473 -20 -1.50697243213654)
(24 -20 -5.87799996054779e-15)
(23.8107528686523 -20 -3.00799751281738)
(23.9526405334473 -20 1.50697243213654)
(4.49715137481689 -20 23.574893951416)
(3.00799751281738 -20 23.8107528686523)
(1.50697243213654 -20 23.9526405334473)
(23.8107528686523 -20 3.00799751281738)
(5.96855735778809 -20 23.2459964752197)
(8.83498954772949 -20 22.3146343231201)
(7.41640758514404 -20 22.8253555297852)
(22.8253555297852 -20 7.41640758514404)
(22.3146343231201 -20 8.83498954772949)
(21.7158489227295 -20 10.2187032699585)
(23.574893951416 -20 4.49715137481689)
(23.2459964752197 -20 5.96855735778809)
(21.0313587188721 -20 11.5620880126953)
(12.859842300415 -20 20.2638702392578)
(11.5620880126953 -20 21.0313587188721)
(10.2187032699585 -20 21.7158489227295)
(14.1068458557129 -20 19.4164085388184)
(15.2981758117676 -20 18.4923191070557)
(20.2638702392578 -20 12.859842300415)
(19.4164085388184 -20 14.1068458557129)
(18.4923191070557 -20 15.2981758117676)
(17.495246887207 -20 16.4291305541992)
(16.4291305541992 -20 17.495246887207)
(1.5 3 3.6700000016662e-16)
(1.49413025379181 3 -0.132570162415504)
(1.49413025379181 -3 -0.132570162415504)
(1.5 -3 3.6700000016662e-16)
(1.47656691074371 3 -0.264102786779404)
(1.47656691074371 -3 -0.264102786779404)
(1.44744741916656 3 -0.393568426370621)
(1.4069995880127 3 -0.519953846931458)
(1.44744741916656 -3 -0.393568426370621)
(1.35554015636444 3 -0.642269968986511)
(1.4069995880127 -3 -0.519953846931458)
(1.35554015636444 -3 -0.642269968986511)
(1.2934718132019 3 -0.759559452533722)
(1.22128021717072 3 -0.870904386043549)
(1.2934718132019 -3 -0.759559452533722)
(1.22128021717072 -3 -0.870904386043549)
(1.13953065872192 3 -0.975433230400085)
(1.13953065872192 -3 -0.975433230400085)
(1.04886257648468 3 -1.07232797145844)
(1.04886257648468 -3 -1.07232797145844)
(0.94998574256897 3 -1.16083037853241)
(0.94998574256897 -3 -1.16083037853241)
(0.843673944473267 3 -1.24024772644043)
(0.843673944473267 -3 -1.24024772644043)
(0.730759263038635 3 -1.30995833873749)
(0.730759263038635 -3 -1.30995833873749)
(0.61212545633316 3 -1.36941683292389)
(0.61212545633316 -3 -1.36941683292389)
(0.488700866699219 -3 -1.41815769672394)
(0.488700866699219 3 -1.41815769672394)
(0.36145156621933 3 -1.45579969882965)
(0.36145156621933 -3 -1.45579969882965)
(0.231373399496078 -3 -1.48204791545868)
(0.231373399496078 3 -1.48204791545868)
(0.0994844362139702 3 -1.496697306633)
(0.0994844362139702 -3 -1.496697306633)
(-0.0331831313669682 3 -1.49963295459747)
(-0.0331831313669682 -3 -1.49963295459747)
(-0.165590986609459 3 -1.49083185195923)
(-0.296702891588211 3 -1.47036302089691)
(-0.165590986609459 -3 -1.49083185195923)
(-0.296702891588211 -3 -1.47036302089691)
(-0.42549267411232 3 -1.43838655948639)
(-0.55095237493515 3 -1.39515280723572)
(-0.42549267411232 -3 -1.43838655948639)
(-0.55095237493515 -3 -1.39515280723572)
(-0.672100186347961 3 -1.34100008010864)
(-0.672100186347961 -3 -1.34100008010864)
(-0.7879878282547 3 -1.27635228633881)
(-0.7879878282547 -3 -1.27635228633881)
(-0.897708475589752 3 -1.20171523094177)
(-0.897708475589752 -3 -1.20171523094177)
(-1.00040328502655 3 -1.11767303943634)
(-1.00040328502655 -3 -1.11767303943634)
(-1.09526860713959 3 -1.02488374710083)
(-1.09526860713959 -3 -1.02488374710083)
(-1.18156206607819 3 -0.924073219299316)
(-1.18156206607819 -3 -0.924073219299316)
(-1.25860798358917 3 -0.816030561923981)
(-1.25860798358917 -3 -0.816030561923981)
(-1.32580375671387 3 -0.701601445674896)
(-1.32580375671387 -3 -0.701601445674896)
(-1.38262319564819 3 -0.581681251525879)
(-1.38262319564819 -3 -0.581681251525879)
(-1.42862176895142 3 -0.457208663225174)
(-1.42862176895142 -3 -0.457208663225174)
(-1.46343946456909 3 -0.329157769680023)
(-1.46343946456909 -3 -0.329157769680023)
(-1.4868038892746 3 -0.198530778288841)
(-1.4868038892746 -3 -0.198530778288841)
(-1.49853181838989 3 -0.066350020468235)
(-1.49853181838989 3 0.066350020468235)
(-1.49853181838989 -3 -0.066350020468235)
(-1.49853181838989 -3 0.066350020468235)
(-1.4868038892746 3 0.198530778288841)
(-1.4868038892746 -3 0.198530778288841)
(-1.46343946456909 3 0.329157769680023)
(-1.46343946456909 -3 0.329157769680023)
(-1.42862176895142 -3 0.457208663225174)
(-1.42862176895142 3 0.457208663225174)
(-1.38262319564819 -3 0.581681251525879)
(-1.38262319564819 3 0.581681251525879)
(-1.32580375671387 -3 0.701601445674896)
(-1.32580375671387 3 0.701601445674896)
(-1.25860798358917 -3 0.816030561923981)
(-1.25860798358917 3 0.816030561923981)
(-1.18156206607819 -3 0.924073219299316)
(-1.18156206607819 3 0.924073219299316)
(-1.09526860713959 -3 1.02488374710083)
(-1.09526860713959 3 1.02488374710083)
(-1.00040328502655 -3 1.11767303943634)
(-1.00040328502655 3 1.11767303943634)
(-0.897708475589752 -3 1.20171523094177)
(-0.897708475589752 3 1.20171523094177)
(-0.7879878282547 -3 1.27635228633881)
(-0.7879878282547 3 1.27635228633881)
(-0.672100186347961 -3 1.34100008010864)
(-0.672100186347961 3 1.34100008010864)
(-0.55095237493515 -3 1.39515280723572)
(-0.55095237493515 3 1.39515280723572)
(-0.42549267411232 -3 1.43838655948639)
(-0.42549267411232 3 1.43838655948639)
(-0.296702891588211 -3 1.47036302089691)
(-0.296702891588211 3 1.47036302089691)
(-0.165590986609459 3 1.49083185195923)
(-0.165590986609459 -3 1.49083185195923)
(-0.0331831313669682 3 1.49963295459747)
(0.0994844362139702 3 1.496697306633)
(-0.0331831313669682 -3 1.49963295459747)
(0.0994844362139702 -3 1.496697306633)
(0.231373399496078 3 1.48204791545868)
(0.231373399496078 -3 1.48204791545868)
(0.36145156621933 3 1.45579969882965)
(0.36145156621933 -3 1.45579969882965)
(0.488700866699219 3 1.41815769672394)
(0.61212545633316 3 1.36941683292389)
(0.488700866699219 -3 1.41815769672394)
(0.61212545633316 -3 1.36941683292389)
(0.730759263038635 3 1.30995833873749)
(0.730759263038635 -3 1.30995833873749)
(0.843673944473267 3 1.24024772644043)
(0.843673944473267 -3 1.24024772644043)
(0.94998574256897 3 1.16083037853241)
(0.94998574256897 -3 1.16083037853241)
(1.04886257648468 3 1.07232797145844)
(1.13953065872192 3 0.975433230400085)
(1.04886257648468 -3 1.07232797145844)
(1.13953065872192 -3 0.975433230400085)
(1.22128021717072 -3 0.870904386043549)
(1.22128021717072 3 0.870904386043549)
(1.2934718132019 -3 0.759559452533722)
(1.2934718132019 3 0.759559452533722)
(1.35554015636444 3 0.642269968986511)
(1.35554015636444 -3 0.642269968986511)
(1.4069995880127 -3 0.519953846931458)
(1.4069995880127 3 0.519953846931458)
(1.44744741916656 -3 0.393568426370621)
(1.44744741916656 3 0.393568426370621)
(1.47656691074371 3 0.264102786779404)
(1.47656691074371 -3 0.264102786779404)
(1.49413025379181 3 0.132570162415504)
(1.49413025379181 -3 0.132570162415504)
)

// edges

342
(
(0 1)
(2 0)
(3 4)
(1 3)
(4 5)
(6 7)
(8 6)
(9 8)
(7 10)
(11 12)
(5 11)
(12 13)
(10 2)
(14 9)
(15 14)
(13 16)
(16 17)
(18 15)
(19 18)
(20 19)
(21 22)
(17 21)
(22 23)
(23 24)
(25 20)
(26 25)
(27 26)
(28 29)
(24 28)
(30 31)
(32 30)
(29 32)
(33 27)
(34 33)
(35 34)
(36 35)
(37 38)
(31 37)
(39 40)
(41 39)
(42 41)
(38 43)
(40 36)
(44 42)
(45 44)
(46 45)
(47 48)
(49 47)
(43 49)
(50 51)
(48 50)
(52 53)
(54 52)
(51 55)
(56 54)
(57 56)
(53 46)
(58 59)
(60 58)
(61 57)
(62 61)
(63 64)
(59 63)
(55 60)
(65 66)
(64 65)
(67 62)
(68 67)
(69 68)
(70 71)
(72 70)
(73 74)
(75 73)
(66 72)
(76 75)
(74 69)
(77 78)
(79 77)
(71 79)
(80 76)
(78 81)
(82 83)
(81 82)
(84 85)
(86 84)
(87 80)
(88 87)
(85 88)
(89 86)
(90 91)
(92 90)
(83 92)
(91 93)
(93 94)
(95 96)
(97 95)
(98 97)
(96 89)
(94 99)
(99 98)
(100 101)
(101 102)
(103 104)
(104 100)
(105 103)
(106 107)
(107 108)
(108 109)
(110 106)
(111 112)
(112 105)
(113 111)
(102 110)
(109 114)
(114 115)
(116 113)
(117 116)
(115 118)
(118 119)
(119 120)
(121 122)
(122 117)
(123 121)
(124 123)
(120 125)
(125 126)
(126 127)
(128 129)
(129 124)
(130 131)
(131 132)
(132 128)
(127 133)
(133 134)
(134 135)
(135 136)
(137 138)
(138 130)
(139 140)
(140 141)
(141 142)
(143 137)
(136 139)
(142 144)
(144 145)
(145 146)
(147 148)
(148 149)
(149 143)
(150 151)
(151 147)
(152 153)
(153 154)
(155 150)
(154 156)
(156 157)
(146 152)
(158 159)
(159 160)
(157 161)
(161 162)
(163 164)
(164 158)
(160 155)
(165 166)
(166 163)
(162 167)
(167 168)
(168 169)
(170 171)
(171 172)
(173 174)
(175 173)
(172 165)
(174 176)
(169 175)
(177 178)
(178 179)
(179 170)
(176 180)
(181 177)
(182 183)
(183 181)
(184 185)
(185 186)
(180 187)
(187 188)
(188 184)
(186 189)
(190 191)
(191 192)
(192 182)
(193 190)
(194 193)
(195 196)
(196 197)
(197 198)
(189 195)
(199 194)
(198 199)
(200 201)
(202 203)
(201 204)
(205 202)
(204 206)
(206 207)
(208 205)
(207 209)
(210 208)
(211 210)
(209 212)
(212 213)
(214 211)
(215 214)
(213 216)
(217 215)
(216 218)
(219 217)
(218 220)
(221 219)
(220 222)
(223 221)
(222 224)
(225 223)
(224 226)
(227 225)
(228 227)
(226 229)
(229 230)
(231 228)
(232 231)
(230 233)
(233 234)
(235 232)
(234 236)
(237 235)
(236 238)
(238 239)
(240 237)
(241 240)
(239 242)
(242 243)
(244 241)
(245 244)
(243 246)
(247 245)
(246 248)
(249 247)
(248 250)
(251 249)
(250 252)
(253 251)
(252 254)
(255 253)
(254 256)
(257 255)
(256 258)
(259 257)
(258 260)
(261 259)
(260 262)
(263 261)
(262 264)
(265 263)
(264 266)
(267 265)
(266 268)
(269 267)
(268 270)
(270 271)
(272 269)
(273 272)
(271 274)
(275 273)
(274 276)
(277 275)
(278 277)
(276 279)
(280 278)
(279 281)
(282 280)
(281 283)
(284 282)
(283 285)
(286 284)
(285 287)
(288 286)
(287 289)
(290 288)
(289 291)
(292 290)
(291 293)
(294 292)
(293 295)
(296 294)
(295 297)
(298 296)
(297 299)
(300 298)
(299 301)
(302 300)
(301 303)
(303 304)
(305 302)
(304 306)
(306 307)
(308 305)
(309 308)
(307 310)
(311 309)
(310 312)
(313 311)
(312 314)
(314 315)
(316 313)
(317 316)
(315 318)
(319 317)
(318 320)
(321 319)
(320 322)
(323 321)
(322 324)
(324 325)
(326 323)
(327 326)
(328 327)
(325 329)
(330 328)
(329 331)
(331 332)
(333 330)
(334 333)
(332 335)
(336 334)
(335 337)
(337 338)
(339 336)
(338 340)
(341 339)
(340 200)
(203 341)
)

// concaveStart mixedStart nonFeatureStart
0 0 0
// internalStart flatStart openStart multipleStart
200 342 342 342
// normals

586
(
(-0 1 -0)
(-0.750110578810047 -0 -0.661312422049712)
(-0.707106781186547 0 -0.707106781186547)
(-0 1 -0)
(-0.827080895139827 0 -0.56208290571294)
(-0.79015527128543 -0 -0.612906719868406)
(-0 1 -0)
(-0.86074239510603 -0 -0.509040793323221)
(0 1 0)
(-0.56208290571294 0 -0.827080895139827)
(-0.509040793323221 -0 -0.86074239510603)
(0 1 0)
(-0.453991283761166 0 -0.891006124708965)
(0 1 0)
(-0.612906719868406 0 -0.79015527128543)
(-0 1 -0)
(-0.917754866710829 -0 -0.397147333654136)
(-0.891006124708965 -0 -0.453991283761166)
(-0 1 -0)
(-0.940880711001961 0 -0.338738081213856)
(0 1 0)
(-0.661312422049712 -0 -0.750110578810047)
(0 1 0)
(-0.397147333654136 0 -0.917754866710829)
(-0.338738081213856 -0 -0.940880711001961)
(-0 1 -0)
(-0.96029340672009 -0 -0.278992066213223)
(0 1 0)
(-0.975916864745135 -0 -0.218142781466694)
(0 1 0)
(-0.278992066213223 -0 -0.96029340672009)
(0 1 0)
(-0.218142781466694 0 -0.975916864745135)
(-0.156434540254418 -0 -0.987688328682378)
(-0 1 -0)
(-0.995562025539826 -0 -0.0941076686728481)
(-0.987688328682378 0 -0.156434540254418)
(-0 1 -0)
(-0.99950654058404 0 -0.0314113885354356)
(-0 1 0)
(-0.99950654058404 0 0.031411388535433)
(0 1 0)
(-0.0941076686728481 0 -0.995562025539826)
(-0 1 0)
(-0.0314113885354344 -0 -0.99950654058404)
(0.0314113885354342 0 -0.99950654058404)
(-0 1 0)
(-0.987688328682378 0 0.156434540254418)
(-0.995562025539826 0 0.0941076686728481)
(-0 1 0)
(-0.940880711001961 0 0.338738081213856)
(-0.96029340672009 0 0.278992066213223)
(-0 1 0)
(-0.975916864745135 0 0.218142781466694)
(0 1 -0)
(0.0941076686728481 0 -0.995562025539826)
(0 1 -0)
(0.156434540254418 0 -0.987688328682378)
(0 1 -0)
(0.218142781466694 0 -0.975916864745135)
(0 1 -0)
(0.278992066213223 0 -0.96029340672009)
(-0 1 0)
(-0.891006124708965 0 0.453991283761166)
(-0.917754866710829 0 0.397147333654136)
(0 1 0)
(0.397147333654136 0 -0.917754866710829)
(0 1 0)
(0.453991283761166 0 -0.891006124708965)
(0.509040793323221 0 -0.86074239510603)
(-0 1 0)
(-0.86074239510603 0 0.509040793323221)
(0 1 0)
(0.338738081213856 0 -0.940880711001961)
(0 1 0)
(0.56208290571294 0 -0.827080895139827)
(0 1 0)
(0.612906719868406 0 -0.79015527128543)
(0.661312422049712 0 -0.750110578810047)
(-0 1 0)
(-0.750110578810047 0 0.661312422049712)
(-0.79015527128543 0 0.612906719868406)
(-0 1 0)
(-0.827080895139827 0 0.56208290571294)
(-0 1 0)
(-0.661312422049712 0 0.750110578810047)
(-0.707106781186547 0 0.707106781186547)
(0 1 0)
(0.750110578810047 0 -0.661312422049712)
(0.79015527128543 0 -0.612906719868406)
(-0 1 0)
(-0.612906719868406 0 0.79015527128543)
(0 1 0)
(0.827080895139827 0 -0.56208290571294)
(0 1 0)
(0.86074239510603 0 -0.509040793323221)
(0 1 0)
(0.707106781186547 0 -0.707106781186547)
(-0 1 0)
(-0.453991283761166 0 0.891006124708965)
(-0.509040793323221 0 0.86074239510603)
(0 1 0)
(0.891006124708965 0 -0.453991283761166)
(0.917754866710829 0 -0.397147333654136)
(-0 1 0)
(-0.338738081213856 0 0.940880711001961)
(-0.397147333654136 0 0.917754866710829)
(-0 1 0)
(-0.56208290571294 0 0.827080895139827)
(-0 1 0)
(-0.218142781466694 0 0.975916864745135)
(-0.278992066213223 0 0.96029340672009)
(0 1 -0)
(0.940880711001961 0 -0.338738081213856)
(0 1 -0)
(0.96029340672009 0 -0.278992066213223)
(0 1 -0)
(0.975916864745135 0 -0.218142781466694)
(-0 1 0)
(-0.0314113885354346 0 0.99950654058404)
(-0.0941076686728481 0 0.995562025539826)
(0 1 0)
(0.995562025539826 0 -0.0941076686728481)
(0.99950654058404 0 -0.0314113885354344)
(0 1 0)
(-0.156434540254418 0 0.987688328682378)
(0 1 0)
(0.99950654058404 0 0.0314113885354342)
(0 1 0)
(0.987688328682378 0 -0.156434540254418)
(0 1 0)
(0.156434540254418 0 0.987688328682378)
(0.0941076686728481 0 0.995562025539826)
(0 1 0)
(0.031411388535434 0 0.99950654058404)
(0 1 0)
(0.995562025539826 0 0.0941076686728481)
(0 1 0)
(0.218142781466694 0 0.975916864745135)
(0 1 0)
(0.338738081213856 0 0.940880711001961)
(0.278992066213223 0 0.96029340672009)
(0 1 0)
(0.940880711001961 0 0.338738081213856)
(0.917754866710829 0 0.397147333654136)
(0 1 0)
(0.987688328682378 0 0.156434540254418)
(0 1 0)
(0.975916864745135 0 0.218142781466694)
(0 1 0)
(0.96029340672009 0 0.278992066213223)
(0 1 0)
(0.891006124708965 0 0.453991283761166)
(0 1 0)
(0.509040793323221 0 0.86074239510603)
(0.453991283761166 0 0.891006124708965)
(0 1 0)
(0.397147333654136 0 0.917754866710829)
(0 1 0)
(0.56208290571294 0 0.827080895139827)
(0 1 0)
(0.612906719868406 0 0.79015527128543)
(0 1 0)
(0.827080895139827 0 0.56208290571294)
(0 1 0)
(0.79015527128543 0 0.612906719868406)
(0.750110578810047 0 0.661312422049712)
(0 1 0)
(0.86074239510603 0 0.509040793323221)
(0 1 0)
(0.661312422049712 0 0.750110578810047)
(0 1 0)
(0.707106781186547 0 0.707106781186547)
(0 -1 0)
(-0.750110578810047 0 -0.661312422049712)
(-0.707106781186547 0 -0.707106781186547)
(0 -1 0)
(-0.827080895139827 0 -0.56208290571294)
(-0.79015527128543 0 -0.612906719868406)
(0 -1 0)
(-0.86074239510603 0 -0.509040793323221)
(0 -1 0)
(-0.56208290571294 0 -0.827080895139827)
(-0.509040793323221 0 -0.86074239510603)
(0 -1 0)
(-0.453991283761166 0 -0.891006124708965)
(0 -1 0)
(-0.612906719868406 0 -0.79015527128543)
(0 -1 0)
(-0.917754866710829 0 -0.397147333654136)
(-0.891006124708965 0 -0.453991283761166)
(0 -1 0)
(-0.940880711001961 0 -0.338738081213856)
(0 -1 0)
(-0.661312422049712 0 -0.750110578810047)
(0 -1 0)
(-0.397147333654136 0 -0.917754866710829)
(-0.338738081213856 0 -0.940880711001961)
(0 -1 0)
(-0.96029340672009 0 -0.278992066213223)
(0 -1 0)
(-0.975916864745135 0 -0.218142781466694)
(0 -1 0)
(-0.278992066213223 0 -0.96029340672009)
(0 -1 0)
(-0.218142781466694 0 -0.975916864745135)
(-0.156434540254418 0 -0.987688328682378)
(0 -1 0)
(-0.995562025539826 0 -0.0941076686728481)
(-0.987688328682378 0 -0.156434540254418)
(0 -1 0)
(-0.99950654058404 0 -0.0314113885354356)
(0 -1 -0)
(-0.99950654058404 0 0.031411388535433)
(0 -1 0)
(-0.0941076686728481 0 -0.995562025539826)
(-0 -1 0)
(-0.0314113885354344 0 -0.99950654058404)
(0.0314113885354342 0 -0.99950654058404)
(0 -1 0)
(-0.987688328682378 0 0.156434540254418)
(-0.995562025539826 0 0.0941076686728481)
(0 -1 0)
(-0.940880711001961 0 0.338738081213856)
(-0.96029340672009 0 0.278992066213223)
(0 -1 0)
(-0.975916864745135 0 0.218142781466694)
(0 -1 0)
(0.0941076686728481 0 -0.995562025539826)
(0 -1 0)
(0.156434540254418 0 -0.987688328682378)
(0 -1 0)
(0.218142781466694 0 -0.975916864745135)
(0 -1 0)
(0.278992066213223 0 -0.96029340672009)
(0 -1 0)
(-0.891006124708965 0 0.453991283761166)
(-0.917754866710829 0 0.397147333654136)
(0 -1 0)
(0.397147333654136 0 -0.917754866710829)
(0 -1 0)
(0.453991283761166 0 -0.891006124708965)
(0.509040793323221 0 -0.86074239510603)
(0 -1 0)
(-0.86074239510603 0 0.509040793323221)
(0 -1 0)
(0.338738081213856 0 -0.940880711001961)
(0 -1 0)
(0.56208290571294 0 -0.827080895139827)
(0 -1 0)
(0.612906719868406 0 -0.79015527128543)
(0.661312422049712 0 -0.750110578810047)
(0 -1 0)
(-0.750110578810047 0 0.661312422049712)
(-0.79015527128543 0 0.612906719868406)
(0 -1 0)
(-0.827080895139827 0 0.56208290571294)
(0 -1 0)
(-0.661312422049712 0 0.750110578810047)
(-0.707106781186547 0 0.707106781186547)
(0 -1 0)
(0.750110578810047 0 -0.661312422049712)
(0.79015527128543 0 -0.612906719868406)
(0 -1 0)
(-0.612906719868406 0 0.79015527128543)
(0 -1 0)
(0.827080895139827 0 -0.56208290571294)
(0 -1 0)
(0.86074239510603 0 -0.509040793323221)
(0 -1 0)
(0.707106781186547 0 -0.707106781186547)
(0 -1 0)
(-0.453991283761166 0 0.891006124708965)
(-0.509040793323221 0 0.86074239510603)
(0 -1 0)
(0.891006124708965 0 -0.453991283761166)
(0.917754866710829 0 -0.397147333654136)
(0 -1 0)
(-0.338738081213856 0 0.940880711001961)
(-0.397147333654136 0 0.917754866710829)
(0 -1 0)
(-0.56208290571294 0 0.827080895139827)
(0 -1 0)
(-0.218142781466694 0 0.975916864745135)
(-0.278992066213223 0 0.96029340672009)
(0 -1 0)
(0.940880711001961 0 -0.338738081213856)
(0 -1 0)
(0.96029340672009 0 -0.278992066213223)
(0 -1 0)
(0.975916864745135 0 -0.218142781466694)
(0 -1 0)
(-0.0314113885354346 0 0.99950654058404)
(-0.0941076686728481 0 0.995562025539826)
(0 -1 0)
(0.99950654058404 0 -0.0314113885354344)
(0.995562025539826 0 -0.0941076686728481)
(0 -1 0)
(-0.156434540254418 0 0.987688328682378)
(0 -1 -0)
(0.99950654058404 0 0.0314113885354342)
(0 -1 0)
(0.987688328682378 0 -0.156434540254418)
(0 -1 0)
(0.156434540254418 0 0.987688328682378)
(0.0941076686728481 0 0.995562025539826)
(0 -1 0)
(0.031411388535434 -0 0.99950654058404)
(0 -1 0)
(0.995562025539826 -0 0.0941076686728481)
(0 -1 0)
(0.218142781466694 0 0.975916864745135)
(0 -1 0)
(0.338738081213856 0 0.940880711001961)
(0.278992066213223 0 0.96029340672009)
(0 -1 0)
(0.940880711001961 -0 0.338738081213856)
(0.917754866710829 0 0.397147333654136)
(0 -1 0)
(0.987688328682378 0 0.156434540254418)
(0 -1 0)
(0.975916864745135 -0 0.218142781466694)
(0 -1 0)
(0.96029340672009 0 0.278992066213223)
(0 -1 0)
(0.891006124708965 0 0.453991283761166)
(0 -1 0)
(0.509040793323221 -0 0.86074239510603)
(0.453991283761166 -0 0.891006124708965)
(0 -1 0)
(0.397147333654136 0 0.917754866710829)
(0 -1 0)
(0.56208290571294 0 0.827080895139827)
(0 -1 0)
(0.612906719868406 0 0.79015527128543)
(0 -1 0)
(0.827080895139827 0 0.56208290571294)
(0 -1 0)
(0.79015527128543 0 0.612906719868406)
(0.750110578810047 0 0.661312422049712)
(0 -1 0)
(0.86074239510603 -0 0.509040793323221)
(0 -1 0)
(0.661312422049712 0 0.750110578810047)
(0 -1 0)
(0.707106781186547 0 0.707106781186547)
(-0.999021233487727 0 0.0442331893566495)
(0 -1 0)
(-0.999021233487727 0 0.0442331893566495)
(0 1 0)
(-0.991202550563692 0 0.132353706997696)
(0 -1 0)
(-0.991202550563692 0 0.132353706997696)
(0 1 0)
(-0.97562633940658 0 0.219438478522153)
(0 -1 0)
(-0.952414310636015 0 0.304806464655401)
(-0.97562633940658 0 0.219438478522153)
(0 1 0)
(-0.921748784007301 0 0.387787543870432)
(0 -1 0)
(-0.952414310636015 0 0.304806464655401)
(-0.921748784007301 0 0.387787543870432)
(0 1 0)
(-0.883869201241528 0 0.46773415002185)
(0 -1 0)
(-0.839071863407352 0 0.544020595233411)
(0 -1 0)
(-0.883869201241528 0 0.46773415002185)
(0 1 0)
(-0.839071863407352 0 0.544020595233411)
(0 1 0)
(-0.787708401483655 0 0.616048272647579)
(-0.787708401483655 0 0.616048272647579)
(-0.730178866670671 0 0.683256044735452)
(0 -1 0)
(-0.730178866670671 0 0.683256044735452)
(0 1 -0)
(-0.666935727434799 0 0.745115249790941)
(-0 -1 0)
(-0.666935727434799 0 0.745115249790941)
(0 1 0)
(-0.598472454963712 0 0.801143383327671)
(-0.598472454963712 0 0.801143383327671)
(-0.525324814577448 0 0.850901779989424)
(-0 -1 0)
(-0.525324814577448 0 0.850901779989424)
(0 1 0)
(-0.448066991377506 0 0.89399998391382)
(-0 -1 0)
(-0.448066991377506 0 0.89399998391382)
(0 1 0)
(-0.367301042925907 0 0.930102114751677)
(0 1 0)
(-0.367301042925907 0 0.930102114751677)
(-0 -1 0)
(-0.283662293085968 0 0.958924242826935)
(-0.283662293085968 0 0.958924242826935)
(-0.19780113351569 0 0.980242169864115)
(0 1 0)
(-0.19780113351569 0 0.980242169864115)
(-0 -1 0)
(-0.11039476746932 0 0.993887818274978)
(-0.11039476746932 0 0.993887818274978)
(-0.0221224340956512 0 0.999755269008213)
(0 -1 0)
(-0.0221224340956512 0 0.999755269008213)
(0 1 0)
(0.0663232875268544 -0 0.997798186775076)
(0 -1 0)
(0.154248851054389 -0 0.988032029819075)
(0 -1 0)
(0.0663232875268544 0 0.997798186775076)
(0 1 0)
(0.154248851054389 -0 0.988032029819075)
(0 1 0)
(0.24096797561142 -0 0.9705330673036)
(0.325800659434898 -0 0.945438485736531)
(0 -1 0)
(0.24096797561142 0 0.9705330673036)
(0.325800659434898 -0 0.945438485736531)
(0 1 0)
(0.40808361924761 -0 0.912944554560556)
(0 -1 0)
(0.40808361924761 0 0.912944554560556)
(0 1 0)
(0.487172622546751 -0 0.873305694382512)
(0.487172622546751 0 0.873305694382512)
(0.562449223614706 -0 0.826831827432408)
(0 -1 0)
(0.562449223614706 0 0.826831827432408)
(0 1 0)
(0.633324300076115 -0 0.773886510370286)
(0.633324300076115 0 0.773886510370286)
(0.699241244299038 -0 0.7148857826752)
(0 -1 0)
(0.699241244299038 0 0.7148857826752)
(0 1 0)
(0.759686749861365 -0 0.65028919880702)
(0 -1 0)
(0.759686749861365 0 0.65028919880702)
(0 1 0)