/*--------------------------------*- C++ -*----------------------------------*\
| =========                 |                                                 |
| \\      /  F ield         | OpenFOAM: The Open Source CFD Toolbox           |
|  \\    /   O peration     | Version:  2412                                  |
|   \\  /    A nd           | Website:  www.openfoam.com                      |
|    \\/     M anipulation  |                                                 |
\*---------------------------------------------------------------------------*/
FoamFile
{
    version     2.0;
    format      ascii;
    arch        "LSB;label=32;scalar=64";
    class       extendedFeatureEdgeMesh;
    location    "constant/extendedFeatureEdgeMesh";
    object      MeshRefinement.extendedFeatureEdgeMesh;
}
// * * * * * * * * * * * * * * * * * * * * * * * * * * * * * * * * * * * * * //

// points

142
(
(1.5 3 3.6700000016662e-16)
(1.49413025379181 3 -0.132570162415504)
(1.49413025379181 -3 -0.132570162415504)
(1.5 -3 3.6700000016662e-16)
(1.47656691074371 3 -0.264102786779404)
(1.47656691074371 -3 -0.264102786779404)
(1.44744741916656 3 -0.393568426370621)
(1.4069995880127 3 -0.519953846931458)
(1.44744741916656 -3 -0.393568426370621)
(1.35554015636444 3 -0.642269968986511)
(1.4069995880127 -3 -0.519953846931458)
(1.35554015636444 -3 -0.642269968986511)
(1.2934718132019 3 -0.759559452533722)
(1.22128021717072 3 -0.870904386043549)
(1.2934718132019 -3 -0.759559452533722)
(1.22128021717072 -3 -0.870904386043549)
(1.13953065872192 3 -0.975433230400085)
(1.13953065872192 -3 -0.975433230400085)
(1.04886257648468 3 -1.07232797145844)
(1.04886257648468 -3 -1.07232797145844)
(0.94998574256897 3 -1.16083037853241)
(0.94998574256897 -3 -1.16083037853241)
(0.843673944473267 3 -1.24024772644043)
(0.843673944473267 -3 -1.24024772644043)
(0.730759263038635 3 -1.30995833873749)
(0.730759263038635 -3 -1.30995833873749)
(0.61212545633316 3 -1.36941683292389)
(0.61212545633316 -3 -1.36941683292389)
(0.488700866699219 -3 -1.41815769672394)
(0.488700866699219 3 -1.41815769672394)
(0.36145156621933 3 -1.45579969882965)
(0.36145156621933 -3 -1.45579969882965)
(0.231373399496078 -3 -1.48204791545868)
(0.231373399496078 3 -1.48204791545868)
(0.0994844362139702 3 -1.496697306633)
(0.0994844362139702 -3 -1.496697306633)
(-0.0331831313669682 3 -1.49963295459747)
(-0.0331831313669682 -3 -1.49963295459747)
(-0.165590986609459 3 -1.49083185195923)
(-0.296702891588211 3 -1.47036302089691)
(-0.165590986609459 -3 -1.49083185195923)
(-0.296702891588211 -3 -1.47036302089691)
(-0.42549267411232 3 -1.43838655948639)
(-0.55095237493515 3 -1.39515280723572)
(-0.42549267411232 -3 -1.43838655948639)
(-0.55095237493515 -3 -1.39515280723572)
(-0.672100186347961 3 -1.34100008010864)
(-0.672100186347961 -3 -1.34100008010864)
(-0.7879878282547 3 -1.27635228633881)
(-0.7879878282547 -3 -1.27635228633881)
(-0.897708475589752 3 -1.20171523094177)
(-0.897708475589752 -3 -1.20171523094177)
(-1.00040328502655 3 -1.11767303943634)
(-1.00040328502655 -3 -1.11767303943634)
(-1.09526860713959 3 -1.02488374710083)
(-1.09526860713959 -3 -1.02488374710083)
(-1.18156206607819 3 -0.924073219299316)
(-1.18156206607819 -3 -0.924073219299316)
(-1.25860798358917 3 -0.816030561923981)
(-1.25860798358917 -3 -0.816030561923981)
(-1.32580375671387 3 -0.701601445674896)
(-1.32580375671387 -3 -0.701601445674896)
(-1.38262319564819 3 -0.581681251525879)
(-1.38262319564819 -3 -0.581681251525879)
(-1.42862176895142 3 -0.457208663225174)
(-1.42862176895142 -3 -0.457208663225174)
(-1.46343946456909 3 -0.329157769680023)
(-1.46343946456909 -3 -0.329157769680023)
(-1.4868038892746 3 -0.198530778288841)
(-1.4868038892746 -3 -0.198530778288841)
(-1.49853181838989 3 -0.066350020468235)
(-1.49853181838989 3 0.066350020468235)
(-1.49853181838989 -3 -0.066350020468235)
(-1.49853181838989 -3 0.066350020468235)
(-1.4868038892746 3 0.198530778288841)
(-1.4868038892746 -3 0.198530778288841)
(-1.46343946456909 3 0.329157769680023)
(-1.46343946456909 -3 0.329157769680023)
(-1.42862176895142 -3 0.457208663225174)
(-1.42862176895142 3 0.457208663225174)
(-1.38262319564819 -3 0.581681251525879)
(-1.38262319564819 3 0.581681251525879)
(-1.32580375671387 -3 0.701601445674896)
(-1.32580375671387 3 0.701601445674896)
(-1.25860798358917 -3 0.816030561923981)
(-1.25860798358917 3 0.816030561923981)
(-1.18156206607819 -3 0.924073219299316)
(-1.18156206607819 3 0.924073219299316)
(-1.09526860713959 -3 1.02488374710083)
(-1.09526860713959 3 1.02488374710083)
(-1.00040328502655 -3 1.11767303943634)
(-1.00040328502655 3 1.11767303943634)
(-0.897708475589752 -3 1.20171523094177)
(-0.897708475589752 3 1.20171523094177)
(-0.7879878282547 -3 1.27635228633881)
(-0.7879878282547 3 1.27635228633881)
(-0.672100186347961 -3 1.34100008010864)
(-0.672100186347961 3 1.34100008010864)
(-0.55095237493515 -3 1.39515280723572)
(-0.55095237493515 3 1.39515280723572)
(-0.42549267411232 -3 1.43838655948639)
(-0.42549267411232 3 1.43838655948639)
(-0.296702891588211 -3 1.47036302089691)
(-0.296702891588211 3 1.47036302089691)
(-0.165590986609459 3 1.49083185195923)
(-0.165590986609459 -3 1.49083185195923)
(-0.0331831313669682 3 1.49963295459747)
(0.0994844362139702 3 1.496697306633)
(-0.0331831313669682 -3 1.49963295459747)
(0.0994844362139702 -3 1.496697306633)
(0.231373399496078 3 1.48204791545868)
(0.231373399496078 -3 1.48204791545868)
(0.36145156621933 3 1.45579969882965)
(0.36145156621933 -3 1.45579969882965)
(0.488700866699219 3 1.41815769672394)
(0.61212545633316 3 1.36941683292389)
(0.488700866699219 -3 1.41815769672394)
(0.61212545633316 -3 1.36941683292389)
(0.730759263038635 3 1.30995833873749)
(0.730759263038635 -3 1.30995833873749)
(0.843673944473267 3 1.24024772644043)
(0.843673944473267 -3 1.24024772644043)
(0.94998574256897 3 1.16083037853241)
(0.94998574256897 -3 1.16083037853241)
(1.04886257648468 3 1.07232797145844)
(1.13953065872192 3 0.975433230400085)
(1.04886257648468 -3 1.07232797145844)
(1.13953065872192 -3 0.975433230400085)
(1.22128021717072 -3 0.870904386043549)
(1.22128021717072 3 0.870904386043549)
(1.2934718132019 -3 0.759559452533722)
(1.2934718132019 3 0.759559452533722)
(1.35554015636444 3 0.642269968986511)
(1.35554015636444 -3 0.642269968986511)
(1.4069995880127 -3 0.519953846931458)
(1.4069995880127 3 0.519953846931458)
(1.44744741916656 -3 0.393568426370621)
(1.44744741916656 3 0.393568426370621)
(1.47656691074371 3 0.264102786779404)
(1.47656691074371 -3 0.264102786779404)
(1.49413025379181 3 0.132570162415504)
(1.49413025379181 -3 0.132570162415504)
)

// edges

142
(
(0 1)
(2 3)
(1 4)
(5 2)
(4 6)
(6 7)
(8 5)
(7 9)
(10 8)
(11 10)
(9 12)
(12 13)
(14 11)
(15 14)
(13 16)
(17 15)
(16 18)
(19 17)
(18 20)
(21 19)
(20 22)
(23 21)
(22 24)
(25 23)
(24 26)
(27 25)
(28 27)
(26 29)
(29 30)
(31 28)
(32 31)
(30 33)
(33 34)
(35 32)
(34 36)
(37 35)
(36 38)
(38 39)
(40 37)
(41 40)
(39 42)
(42 43)
(44 41)
(45 44)
(43 46)
(47 45)
(46 48)
(49 47)
(48 50)
(51 49)
(50 52)
(53 51)
(52 54)
(55 53)
(54 56)
(57 55)
(56 58)
(59 57)
(58 60)
(61 59)
(60 62)
(63 61)
(62 64)
(65 63)
(64 66)
(67 65)
(66 68)
(69 67)
(68 70)
(70 71)
(72 69)
(73 72)
(71 74)
(75 73)
(74 76)
(77 75)
(78 77)
(76 79)
(80 78)
(79 81)
(82 80)
(81 83)
(84 82)
(83 85)
(86 84)
(85 87)
(88 86)
(87 89)
(90 88)
(89 91)
(92 90)
(91 93)
(94 92)
(93 95)
(96 94)
(95 97)
(98 96)
(97 99)
(100 98)
(99 101)
(102 100)
(101 103)
(103 104)
(105 102)
(104 106)
(106 107)
(108 105)
(109 108)
(107 110)
(111 109)
(110 112)
(113 111)
(112 114)
(114 115)
(116 113)
(117 116)
(115 118)
(119 117)
(118 120)
(121 119)
(120 122)
(123 121)
(122 124)
(124 125)
(126 123)
(127 126)
(128 127)
(125 129)
(130 128)
(129 131)
(131 132)
(133 130)
(134 133)
(132 135)
(136 134)
(135 137)
(137 138)
(139 136)
(138 140)
(141 139)
(140 0)
(3 141)
)

// concaveStart mixedStart nonFeatureStart
0 0 0
// internalStart flatStart openStart multipleStart
0 142 142 142
// normals

240
(
(-0.999021233487727 0 0.0442331893566495)
(0 -1 0)
(-0.999021233487727 0 0.0442331893566495)
(0 1 0)
(-0.991202550563692 0 0.132353706997696)
(0 -1 0)
(-0.991202550563692 0 0.132353706997696)
(0 1 0)
(-0.97562633940658 0 0.219438478522153)
(0 -1 0)
(-0.952414310636015 0 0.304806464655401)
(-0.97562633940658 0 0.219438478522153)
(0 1 0)
(-0.921748784007301 0 0.387787543870432)
(0 -1 0)
(-0.952414310636015 0 0.304806464655401)
(-0.921748784007301 0 0.387787543870432)
(0 1 0)
(-0.883869201241528 0 0.46773415002185)
(0 -1 0)
(-0.839071863407352 0 0.544020595233411)
(0 -1 0)
(-0.883869201241528 0 0.46773415002185)
(0 1 0)
(-0.839071863407352 0 0.544020595233411)
(0 1 0)
(-0.787708401483655 0 0.616048272647579)
(-0.787708401483655 0 0.616048272647579)
(-0.730178866670671 0 0.683256044735452)
(0 -1 0)
(-0.730178866670671 0 0.683256044735452)
(0 1 -0)
(-0.666935727434799 0 0.745115249790941)
(-0 -1 0)
(-0.666935727434799 0 0.745115249790941)
(0 1 0)
(-0.598472454963712 0 0.801143383327671)
(-0.598472454963712 0 0.801143383327671)
(-0.525324814577448 0 0.850901779989424)
(-0 -1 0)
(-0.525324814577448 0 0.850901779989424)
(0 1 0)
(-0.448066991377506 0 0.89399998391382)
(-0 -1 0)
(-0.448066991377506 0 0.89399998391382)
(0 1 0)
(-0.367301042925907 0 0.930102114751677)
(0 1 0)
(-0.367301042925907 0 0.930102114751677)
(-0 -1 0)
(-0.283662293085968 0 0.958924242826935)
(-0.283662293085968 0 0.958924242826935)
(-0.19780113351569 0 0.980242169864115)
(0 1 0)
(-0.19780113351569 0 0.980242169864115)
(-0 -1 0)
(-0.11039476746932 0 0.993887818274978)
(-0.11039476746932 0 0.993887818274978)
(-0.0221224340956512 0 0.999755269008213)
(0 -1 0)
(-0.0221224340956512 0 0.999755269008213)
(0 1 0)
(0.0663232875268544 -0 0.997798186775076)
(0 -1 0)
(0.154248851054389 -0 0.988032029819075)
(0 -1 0)
(0.0663232875268544 0 0.997798186775076)
(0 1 0)
(0.154248851054389 -0 0.988032029819075)
(0 1 0)
(0.24096797561142 -0 0.9705330673036)
(0.325800659434898 -0 0.945438485736531)
(0 -1 0)
(0.24096797561142 0 0.9705330673036)
(0.325800659434898 -0 0.945438485736531)
(0 1 0)
(0.40808361924761 -0 0.912944554560556)
(0 -1 0)
(0.40808361924761 0 0.912944554560556)
(0 1 0)
(0.487172622546751 -0 0.873305694382512)
(0.487172622546751 0 0.873305694382512)
(0.562449223614706 -0 0.826831827432408)
(0 -1 0)
(0.562449223614706 0 0.826831827432408)
(0 1 0)
(0.633324300076115 -0 0.773886510370286)
(0.633324300076115 0 0.773886510370286)
(0.699241244299038 -0 0.7148857826752)
(0 -1 0)
(0.699241244299038 0 0.7148857826752)
(0 1 0)
(0.759686749861365 -0 0.65028919880702)
(0 -1 0)
(0.759686749861365 0 0.65028919880702)
(0 1 0)
(0.814187338167633 -0 0.580602254876352)
(0.814187338167633 0 0.580602254876352)
(0.86231425317398 -0 0.506373507179236)
(0 -1 0)
(0.86231425317398 0 0.506373507179236)
(0 1 0)
(0.903693704836731 -0 0.428179504225113)
(0.903693704836731 0 0.428179504225113)
(0.937999805722442 -0 0.346635780704562)
(0 -1 0)
(0.937999805722442 0 0.346635780704562)
(0 1 0)
(0.964964923225706 -0 0.262378918634878)
(0.964964923225706 0 0.262378918634878)
(0.984377750679751 -0 0.176069429392709)
(0 -1 0)
(0.984377750679751 0 0.176069429392709)
(0 1 0)
(0.996086897707132 -0 0.0883792521816106)
(0 -1 0)
(1 0 0)
(0.996086897707132 0 0.0883792521816106)
(0 1 0)
(1 -0 0)
(0.996086897707132 0 -0.0883792521816106)
(0 -1 -0)
(0.996086897707132 0 -0.0883792521816106)
(0 1 0)
(0.984377750679751 0 -0.176069429392709)
(0.984377750679751 0 -0.176069429392709)
(0.964964923225706 0 -0.262378918634878)
(0 1 0)
(0.964964923225706 0 -0.262378918634878)
(0 -1 -0)
(0.937999805722442 0 -0.346635780704562)
(0 1 0)
(0.937999805722442 0 -0.346635780704562)
(0 -1 -0)
(0.903693704836731 0 -0.428179504225113)
(0.903693704836731 0 -0.428179504225113)
(0.86231425317398 0 -0.506373507179236)
(0 1 0)
(0.86231425317398 0 -0.506373507179236)
(0 -1 -0)
(0.814187338167633 0 -0.580602254876352)
(0 1 0)
(0.814187338167633 0 -0.580602254876352)
(0 -1 -0)
(0.759686749861365 0 -0.65028919880702)
(0 1 0)
(0.759686749861365 0 -0.65028919880702)
(0 -1 -0)
(0.699241244299038 0 -0.7148857826752)
(0 1 0)
(0.699241244299038 0 -0.7148857826752)
(0 -1 0)
(0.633324300076115 0 -0.773886510370286)
(0 1 0)
(0.633324300076115 0 -0.773886510370286)
(0 -1 0)
(0.562449223614706 0 -0.826831827432408)
(0.562449223614706 0 -0.826831827432408)
(0.487172622546751 0 -0.873305694382512)
(0 1 0)
(0.487172622546751 0 -0.873305694382512)
(0 -1 0)
(0.40808361924761 0 -0.912944554560556)
(0.40808361924761 0 -0.912944554560556)
(0.325800659434898 0 -0.945438485736531)
(0 1 0)
(0.325800659434898 0 -0.945438485736531)
(0 -1 0)
(0.24096797561142 0 -0.9705330673036)
(0.24096797561142 0 -0.9705330673036)
(0.154248851054389 0 -0.988032029819075)
(0 -1 0)
(0.154248851054389 0 -0.988032029819075)
(0 1 0)
(0.0663232875268544 0 -0.997798186775076)
(-0.0221224340956512 0 -0.999755269008213)
(0 -1 0)
(0.0663232875268544 0 -0.997798186775076)
(-0.0221224340956512 0 -0.999755269008213)
(0 1 0)
(-0.11039476746932 0 -0.993887818274978)
(0 -1 0)
(-0.11039476746932 0 -0.993887818274978)
(0 1 0)
(-0.19780113351569 0 -0.980242169864115)
(0 -1 0)
(-0.19780113351569 0 -0.980242169864115)
(0 1 0)
(-0.283662293085968 0 -0.958924242826935)
(0 -1 0)
(-0.367301042925907 0 -0.930102114751677)
(-0.283662293085968 0 -0.958924242826935)
(0 1 0)
(-0.367301042925907 0 -0.930102114751677)
(-0.448066991377506 0 -0.89399998391382)
(0 -1 0)
(-0.448066991377506 0 -0.89399998391382)
(0 1 0)
(-0.525324814577448 0 -0.850901779989424)
(0 -1 0)
(-0.525324814577448 0 -0.850901779989424)
(0 1 0)
(-0.598472454963712 0 -0.801143383327671)
(0 -1 0)
(-0.598472454963712 0 -0.801143383327671)
(0 1 0)
(-0.666935727434799 0 -0.745115249790941)
(0 -1 0)
(-0.730178866670671 0 -0.683256044735452)
(0 -1 0)
(-0.666935727434799 0 -0.745115249790941)
(0 1 0)
(-0.730178866670671 0 -0.683256044735452)
(0 1 0)
(-0.787708401483655 0 -0.616048272647579)
(0 1 0)
(-0.787708401483655 0 -0.616048272647579)
(0 -1 0)
(-0.839071863407352 0 -0.544020595233411)
(-0.839071863407352 0 -0.544020595233411)
(-0.883869201241528 0 -0.46773415002185)
(0 -1 0)
(-0.883869201241528 0 -0.46773415002185)
(0 1 0)
(-0.921748784007301 0 -0.387787543870432)
(-0.921748784007301 0 -0.387787543870432)
(-0.952414310636015 0 -0.304806464655401)
(0 1 0)
(-0.952414310636015 0 -0.304806464655401)
(0 -1 0)
(-0.97562633940658 0 -0.219438478522153)
(-0.97562633940658 0 -0.219438478522153)
(-0.991202550563692 0 -0.132353706997696)
(0 -1 0)
(-0.991202550563692 0 -0.132353706997696)
(0 1 0)
(-0.999021233487727 0 -0.0442331893566497)
(0 -1 -0)
(-0.999021233487727 0 -0.0442331893566497)
(0 1 0)
)

// normal volume types

240
(
0
0
0
0
0
0
0
0
0
0
0
0
0
0
0
0
0
0
0
0
0
0
0
0
0
0
0
0
0
0
0
0
0
0
0
0
0
0
0
0
0
0
0
0
0
0
0
0
0
0
0
0
0
0
0
0
0
0
0
0
0
0
0
0
0
0
0
0
0
0
0
0
0
0
0
0
0
0
0
0
0
0
0
0
0
0
0
0
0
0
0
0
0
0
0
0
0
0
0
0
0
0
0
0
0
0
0
0
0
0
0
0
0
0
0
0
0
0
0
0
0
0
0
0
0
0
0
0
0
0
0
0
0
0
0
0
0
0
0
0
0
0
0
0
0
0
0
0
0
0
0
0
0
0
0
0
0
0
0
0
0
0
0
0
0
0
0
0
0
0
0
0
0
0
0
0
0
0
0
0
0
0
0
0
0
0
0
0
0
0
0
0
0
0
0
0
0
0
0
0
0
0
0
0
0
0
0
0
0
0
0
0
0
0
0
0
0
0
0
0
0
0
0
0
0
0
0
0
0
0
0
0
0
0
0
0
0
0
0
0
)

// normalDirections

142
(
2(1 -1)
2(1 -1)
2(1 -1)
2(1 -1)
2(1 -1)
2(1 -1)
2(1 -1)
2(1 -1)
2(1 -1)
2(1 -1)
2(1 -1)
2(1 -1)
2(1 -1)
2(1 -1)
2(1 -1)
2(1 -1)
2(1 -1)
2(1 -1)
2(1 -1)
2(1 -1)
2(1 -1)
2(1 -1)
2(1 -1)
2(1 -1)
2(1 -1)
2(1 -1)
2(1 -1)
2(1 -1)
2(1 -1)
2(1 -1)
2(1 -1)
2(1 -1)
2(1 -1)
2(1 -1)
2(1 -1)
2(1 -1)
2(1 -1)
2(1 -1)
2(1 -1)
2(1 -1)
2(1 -1)
2(1 -1)
2(1 -1)
2(1 -1)
2(1 -1)
2(1 -1)
2(1 -1)
2(1 -1)
2(1 -1)
2(1 -1)
2(1 -1)
2(1 -1)
2(1 -1)
2(1 -1)
2(1 -1)
2(1 -1)
2(1 -1)
2(1 -1)
2(1 -1)
2(1 -1)
2(1 -1)
2(1 -1)
2(1 -1)
2(1 -1)
2(1 -1)
2(1 -1)
2(1 -1)
2(1 -1)
2(1 -1)
2(1 -1)
2(1 -1)
2(1 -1)
2(1 -1)
2(1 -1)
2(1 -1)
2(1 -1)
2(1 -1)
2(1 -1)
2(1 -1)
2(1 -1)
2(1 -1)
2(1 -1)
2(1 -1)
2(1 -1)
2(1 -1)
2(1 -1)
2(1 -1)
2(1 -1)
2(1 -1)
2(1 -1)
2(1 -1)
2(1 -1)
2(1 -1)
2(1 -1)
2(1 -1)
2(1 -1)
2(1 -1)
2(1 -1)
2(1 -1)
2(1 -1)
2(1 -1)
2(1 -1)
2(1 -1)
2(1 -1)
2(1 -1)
2(1 -1)
2(1 -1)
2(1 -1)
2(1 -1)
2(1 -1)
2(1 -1)
2(1 -1)
2(1 -1)
2(1 -1)
2(1 -1)
2(1 -1)
2(1 -1)
2(1 -1)
2(1 -1)
2(1 -1)
2(1 -1)
2(1 -1)
2(1 -1)
2(1 -1)
2(1 -1)
2(1 -1)
2(1 -1)
2(1 -1)
2(1 -1)
2(1 -1)
2(1 -1)
2(1 -1)
2(1 -1)
2(1 -1)
2(1 -1)
2(1 -1)
2(1 -1)
2(1 -1)
2(1 -1)
2(1 -1)
2(1 -1)
2(1 -1)
)

// edgeNormals

142
(
2(0 1)
2(2 3)
2(4 5)
2(6 7)
2(8 9)
2(10 9)
2(11 12)
2(13 14)
2(15 12)
2(16 17)
2(18 19)
2(20 21)
2(22 23)
2(24 25)
2(26 21)
2(27 25)
2(28 29)
2(30 31)
2(32 33)
2(34 35)
2(36 33)
2(37 35)
2(38 39)
2(40 41)
2(42 43)
2(44 45)
2(46 47)
2(48 49)
2(50 49)
2(51 47)
2(52 53)
2(54 55)
2(56 55)
2(57 53)
2(58 59)
2(60 61)
2(62 63)
2(64 65)
2(66 67)
2(68 69)
2(70 65)
2(71 72)
2(73 69)
2(74 75)
2(76 77)
2(78 79)
2(80 77)
2(81 79)
2(82 83)
2(84 85)
2(86 83)
2(87 85)
2(88 89)
2(90 91)
2(92 93)
2(94 95)
2(96 93)
2(97 95)
2(98 99)
2(100 101)
2(102 99)
2(103 101)
2(104 105)
2(106 107)
2(108 105)
2(109 107)
2(110 111)
2(112 113)
2(114 115)
2(116 115)
2(117 118)
2(119 118)
2(120 121)
2(122 123)
2(124 121)
2(125 123)
2(126 127)
2(128 129)
2(130 131)
2(132 133)
2(134 131)
2(135 133)
2(136 137)
2(138 139)
2(140 141)
2(142 143)
2(144 145)
2(146 147)
2(148 149)
2(150 151)
2(152 153)
2(154 155)
2(156 153)
2(157 155)
2(158 159)
2(160 161)
2(162 159)
2(163 161)
2(164 165)
2(166 167)
2(168 165)
2(169 167)
2(170 171)
2(172 173)
2(174 171)
2(175 176)
2(177 173)
2(178 179)
2(180 181)
2(182 183)
2(184 185)
2(186 187)
2(188 189)
2(190 189)
2(191 192)
2(193 192)
2(194 195)
2(196 197)
2(198 199)
2(200 201)
2(202 203)
2(204 205)
2(206 207)
2(208 209)
2(210 211)
2(212 213)
2(214 215)
2(216 217)
2(218 215)
2(219 217)
2(220 221)
2(222 223)
2(224 223)
2(225 221)
2(226 227)
2(228 229)
2(230 229)
2(231 227)
2(232 233)
2(234 235)
2(236 237)
2(238 239)
)

// featurePointNormals
0()
// featurePointEdges
0()
// regionEdges
0()


// ************************************************************************* //
