/*--------------------------------*- C++ -*----------------------------------*\
| =========                 |                                                 |
| \\      /  F ield         | OpenFOAM: The Open Source CFD Toolbox           |
|  \\    /   O peration     | Version:  2412                                  |
|   \\  /    A nd           | Website:  www.openfoam.com                      |
|    \\/     M anipulation  |                                                 |
\*---------------------------------------------------------------------------*/
FoamFile
{
    version     2.0;
    format      ascii;
    arch        "LSB;label=32;scalar=64";
    class       extendedFeatureEdgeMesh;
    location    "constant/extendedFeatureEdgeMesh";
    object      MeshRefinement.extendedFeatureEdgeMesh;
}
// * * * * * * * * * * * * * * * * * * * * * * * * * * * * * * * * * * * * * //

// points

100
(
(-0.242705091834068 3 0.176335573196411)
(-0.262892007827759 3 0.144526109099388)
(-0.21869058907032 3 0.205364137887955)
(-0.278932958841324 3 0.110437363386154)
(-0.290574938058853 3 0.0746069625020027)
(-0.127733781933784 3 0.271448105573654)
(-0.160748034715652 3 0.253298372030258)
(-0.092705100774765 3 0.285316944122314)
(-0.0562143921852112 3 0.294686198234558)
(-0.191227197647095 3 0.231153979897499)
(-0.0188371557742357 3 0.29940801858902)
(-0.297634392976761 3 -0.0375999733805656)
(-0.290574938058853 3 -0.0746069625020027)
(-0.300000011920929 3 1.69520854195445e-15)
(-0.297634392976761 3 0.0375999733805656)
(0.0188371557742357 3 0.29940801858902)
(0.0562143921852112 3 0.294686198234558)
(0.092705100774765 3 0.285316944122314)
(-0.278932958841324 3 -0.110437363386154)
(-0.262892007827759 3 -0.144526109099388)
(0.127733781933784 3 0.271448105573654)
(0.160748034715652 3 0.253298372030258)
(-0.160748034715652 3 -0.253298372030258)
(-0.127733781933784 3 -0.271448105573654)
(-0.191227197647095 3 -0.231153979897499)
(-0.21869058907032 3 -0.205364137887955)
(0.191227197647095 3 0.231153979897499)
(0.21869058907032 3 0.205364137887955)
(0.242705091834068 3 0.176335573196411)
(0.262892007827759 3 0.144526109099388)
(0.278932958841324 3 0.110437363386154)
(0.290574938058853 3 0.0746069625020027)
(0.297634392976761 3 0.0375999733805656)
(0.300000011920929 3 1.40574636129596e-15)
(-0.0188371557742357 3 -0.29940801858902)
(0.0188371557742357 3 -0.29940801858902)
(-0.0562143921852112 3 -0.294686198234558)
(0.297634392976761 3 -0.0375999733805656)
(0.0562143921852112 3 -0.294686198234558)
(0.092705100774765 3 -0.285316944122314)
(-0.092705100774765 3 -0.285316944122314)
(-0.242705091834068 3 -0.176335573196411)
(0.290574938058853 3 -0.0746069625020027)
(0.278932958841324 3 -0.110437363386154)
(0.127733781933784 3 -0.271448105573654)
(0.160748034715652 3 -0.253298372030258)
(0.262892007827759 3 -0.144526109099388)
(0.242705091834068 3 -0.176335573196411)
(0.191227197647095 3 -0.231153979897499)
(0.21869058907032 3 -0.205364137887955)
(-0.262892007827759 -3 0.144526109099388)
(-0.242705091834068 -3 0.176335573196411)
(-0.21869058907032 -3 0.205364137887955)
(-0.290574938058853 -3 0.0746069625020027)
(-0.278932958841324 -3 0.110437363386154)
(-0.160748034715652 -3 0.253298372030258)
(-0.127733781933784 -3 0.271448105573654)
(-0.092705100774765 -3 0.285316944122314)
(-0.0562143921852112 -3 0.294686198234558)
(-0.191227197647095 -3 0.231153979897499)
(-0.0188371557742357 -3 0.29940801858902)
(-0.290574938058853 -3 -0.0746069625020027)
(-0.297634392976761 -3 -0.0375999733805656)
(-0.300000011920929 -3 3.62940885934479e-16)
(-0.297634392976761 -3 0.0375999733805656)
(0.0188371557742357 -3 0.29940801858902)
(0.0562143921852112 -3 0.294686198234558)
(0.092705100774765 -3 0.285316944122314)
(-0.262892007827759 -3 -0.144526109099388)
(-0.278932958841324 -3 -0.110437363386154)
(0.127733781933784 -3 0.271448105573654)
(0.160748034715652 -3 0.253298372030258)
(-0.127733781933784 -3 -0.271448105573654)
(-0.160748034715652 -3 -0.253298372030258)
(-0.191227197647095 -3 -0.231153979897499)
(-0.21869058907032 -3 -0.205364137887955)
(0.191227197647095 -3 0.231153979897499)
(0.21869058907032 -3 0.205364137887955)
(0.242705091834068 -3 0.176335573196411)
(0.262892007827759 -3 0.144526109099388)
(0.278932958841324 -3 0.110437363386154)
(0.290574938058853 -3 0.0746069625020027)
(0.297634392976761 -3 0.0375999733805656)
(0.300000011920929 -3 7.34788045376652e-17)
(0.0188371557742357 -3 -0.29940801858902)
(-0.0188371557742357 -3 -0.29940801858902)
(-0.0562143921852112 -3 -0.294686198234558)
(0.297634392976761 -3 -0.0375999733805656)
(0.092705100774765 -3 -0.285316944122314)
(0.0562143921852112 -3 -0.294686198234558)
(-0.092705100774765 -3 -0.285316944122314)
(-0.242705091834068 -3 -0.176335573196411)
(0.290574938058853 -3 -0.0746069625020027)
(0.278932958841324 -3 -0.110437363386154)
(0.160748034715652 -3 -0.253298372030258)
(0.127733781933784 -3 -0.271448105573654)
(0.262892007827759 -3 -0.144526109099388)
(0.242705091834068 -3 -0.176335573196411)
(0.191227197647095 -3 -0.231153979897499)
(0.21869058907032 -3 -0.205364137887955)
)

// edges

100
(
(0 1)
(2 0)
(3 4)
(1 3)
(5 6)
(7 5)
(8 7)
(9 2)
(6 9)
(10 8)
(11 12)
(13 11)
(14 13)
(15 10)
(16 15)
(17 16)
(18 19)
(12 18)
(4 14)
(20 17)
(21 20)
(22 23)
(24 22)
(25 24)
(26 21)
(27 26)
(28 27)
(29 28)
(30 29)
(31 30)
(32 31)
(33 32)
(34 35)
(36 34)
(37 33)
(38 39)
(35 38)
(40 36)
(23 40)
(41 25)
(19 41)
(42 37)
(43 42)
(44 45)
(39 44)
(46 43)
(47 46)
(45 48)
(49 47)
(48 49)
(50 51)
(51 52)
(53 54)
(54 50)
(55 56)
(56 57)
(57 58)
(52 59)
(59 55)
(58 60)
(61 62)
(62 63)
(63 64)
(60 65)
(65 66)
(66 67)
(68 69)
(69 61)
(64 53)
(67 70)
(70 71)
(72 73)
(73 74)
(74 75)
(71 76)
(76 77)
(77 78)
(78 79)
(79 80)
(80 81)
(81 82)
(82 83)
(84 85)
(85 86)
(83 87)
(88 89)
(89 84)
(86 90)
(90 72)
(75 91)
(91 68)
(87 92)
(92 93)
(94 95)
(95 88)
(93 96)
(96 97)
(98 94)
(97 99)
(99 98)
)

// concaveStart mixedStart nonFeatureStart
0 0 0
// internalStart flatStart openStart multipleStart
0 100 100 100
// normals

172
(
(0 -1 -0)
(0.844327730565112 0 -0.535827102150281)
(0.770513430990023 0 -0.637423762236695)
(0 -1 -0)
(0.951056701594305 0 -0.309016424082219)
(0.904827002465199 0 -0.425779397822209)
(0 -1 0)
(0.4817535617488 0 -0.876306741810392)
(0 -1 0)
(0.368124611577613 0 -0.929776462570887)
(0.248690698648971 0 -0.968582952774561)
(0 -1 0)
(0.684547117796667 0 -0.728968616276638)
(0 -1 0)
(0.587784975110368 0 -0.809017195759462)
(0 -1 0)
(0.125332640774185 0 -0.992114776201105)
(0 -1 0)
(0.982287279116065 -0 0.187381165773824)
(0.998026679973478 -1.39424673892857e-17 0.0627912896914615)
(0 -1 0)
(0.998026679973478 1.39424673892869e-17 -0.0627912896914671)
(0 -1 0)
(0 0 -1)
(0 -1 0)
(-0.125332640774185 0 -0.992114776201105)
(-0.248690698648971 0 -0.968582952774561)
(0 -1 0)
(0.904827002465199 -0 0.425779397822209)
(0.951056701594305 -0 0.309016424082219)
(0 -1 0)
(0.982287279116065 0 -0.187381165773824)
(0 -1 0)
(-0.368124611577613 0 -0.929776462570887)
(-0.4817535617488 0 -0.876306741810392)
(0 -1 0)
(0.4817535617488 -0 0.876306741810392)
(0.587784975110368 -0 0.809017195759462)
(0 -1 0)
(0.684547117796667 -0 0.728968616276638)
(0 -1 0)
(-0.587784975110368 0 -0.809017195759462)
(0 -1 0)
(-0.684547117796667 0 -0.728968616276638)
(0 -1 0)
(-0.770513430990023 0 -0.637423762236695)
(0 -1 0)
(-0.844327730565112 0 -0.535827102150281)
(0 -1 0)
(-0.904827002465199 0 -0.425779397822209)
(0 -1 0)
(-0.951056701594305 0 -0.309016424082219)
(0 -1 0)
(-0.982287279116065 0 -0.187381165773824)
(-0.998026679973478 1.39424663504921e-17 -0.0627912896914666)
(0 -1 0)
(0 -0 1)
(0.125332640774185 -0 0.992114776201105)
(0 -1 0)
(-0.998026679973478 0 0.062791289691462)
(-0 -1 0)
(-0.248690698648971 0 0.968582952774561)
(-0.125332640774185 0 0.992114776201105)
(0 -1 0)
(0.248690698648971 -0 0.968582952774561)
(0 -1 0)
(0.368124611577613 -0 0.929776462570887)
(0 -1 0)
(0.770513430990023 -0 0.637423762236695)
(0 -1 0)
(0.844327730565112 -0 0.535827102150281)
(0 -1 0)
(-0.982287279116065 0 0.187381165773824)
(-0.951056701594305 0 0.309016424082219)
(-0 -1 0)
(-0.4817535617488 0 0.876306741810392)
(-0.368124611577613 0 0.929776462570887)
(0 -1 0)
(-0.904827002465199 0 0.425779397822209)
(-0.844327730565112 0 0.535827102150281)
(-0 -1 0)
(-0.587784975110368 0 0.809017195759462)
(0 -1 0)
(-0.770513430990023 0 0.637423762236695)
(-0 -1 0)
(-0.684547117796667 0 0.728968616276638)
(0 1 0)
(0.844327730565112 0 -0.535827102150281)
(0.770513430990023 0 -0.637423762236695)
(0 1 0)
(0.951056701594305 0 -0.309016424082219)
(0.904827002465199 0 -0.425779397822209)
(0 1 0)
(0.4817535617488 0 -0.876306741810392)
(0 1 0)
(0.368124611577613 0 -0.929776462570887)
(0.248690698648971 0 -0.968582952774561)
(0 1 0)
(0.684547117796667 0 -0.728968616276638)
(0 1 0)
(0.587784975110368 0 -0.809017195759462)
(0 1 0)
(0.125332640774185 0 -0.992114776201105)
(0 1 0)
(0.982287279116065 0 0.187381165773824)
(0.998026679973478 0 0.0627912896914637)
(0 1 0)
(0.998026679973478 0 -0.0627912896914649)
(0 1 0)
(0 0 -1)
(0 1 0)
(-0.125332640774185 0 -0.992114776201105)
(-0.248690698648971 0 -0.968582952774561)
(0 1 0)
(0.904827002465199 0 0.425779397822209)
(0.951056701594305 0 0.309016424082219)
(0 1 0)
(0.982287279116065 0 -0.187381165773824)
(0 1 0)
(-0.368124611577613 0 -0.929776462570887)
(-0.4817535617488 0 -0.876306741810392)
(0 1 0)
(0.4817535617488 0 0.876306741810392)
(0.587784975110368 -0 0.809017195759462)
(0 1 0)
(0.684547117796667 0 0.728968616276638)
(0 1 0)
(-0.587784975110368 0 -0.809017195759462)
(0 1 0)
(-0.684547117796667 0 -0.728968616276638)
(0 1 0)
(-0.770513430990023 0 -0.637423762236695)
(0 1 0)
(-0.844327730565112 0 -0.535827102150281)
(0 1 0)
(-0.904827002465199 0 -0.425779397822209)
(0 1 0)
(-0.951056701594305 0 -0.309016424082219)
(0 1 0)
(-0.982287279116065 0 -0.187381165773824)
(-0.998026679973478 0 -0.0627912896914644)
(0 1 0)
(0 0 1)
(0.125332640774185 -0 0.992114776201105)
(0 1 -0)
(-0.998026679973478 -1.39694584629963e-17 0.0627912896914642)
(0 1 0)
(-0.248690698648971 0 0.968582952774561)
(-0.125332640774185 0 0.992114776201105)
(0 1 0)
(0.248690698648971 0 0.968582952774561)
(0 1 0)
(0.368124611577613 0 0.929776462570887)
(0 1 0)
(0.770513430990023 0 0.637423762236695)
(0 1 0)
(0.844327730565112 0 0.535827102150281)
(0 1 0)
(-0.982287279116065 0 0.187381165773824)
(-0.951056701594305 0 0.309016424082219)
(0 1 0)
(-0.4817535617488 0 0.876306741810392)
(-0.368124611577613 0 0.929776462570887)
(0 1 0)
(-0.904827002465199 0 0.425779397822209)
(-0.844327730565112 0 0.535827102150281)
(0 1 0)
(-0.587784975110368 0 0.809017195759462)
(0 1 0)
(-0.770513430990023 0 0.637423762236695)
(0 1 0)
(-0.684547117796667 0 0.728968616276638)
)

// normal volume types

172
(
0
0
0
0
0
0
0
0
0
0
0
0
0
0
0
0
0
0
0
0
0
0
0
0
0
0
0
0
0
0
0
0
0
0
0
0
0
0
0
0
0
0
0
0
0
0
0
0
0
0
0
0
0
0
0
0
0
0
0
0
0
0
0
0
0
0
0
0
0
0
0
0
0
0
0
0
0
0
0
0
0
0
0
0
0
0
0
0
0
0
0
0
0
0
0
0
0
0
0
0
0
0
0
0
0
0
0
0
0
0
0
0
0
0
0
0
0
0
0
0
0
0
0
0
0
0
0
0
0
0
0
0
0
0
0
0
0
0
0
0
0
0
0
0
0
0
0
0
0
0
0
0
0
0
0
0
0
0
0
0
0
0
0
0
0
0
0
0
0
0
0
0
)

// normalDirections

100
(
2(1 -1)
2(1 -1)
2(1 -1)
2(1 -1)
2(1 -1)
2(1 -1)
2(1 -1)
2(1 -1)
2(1 -1)
2(1 -1)
2(1 -1)
2(1 -1)
2(1 -1)
2(1 -1)
2(1 -1)
2(1 -1)
2(1 -1)
2(1 -1)
2(1 -1)
2(1 -1)
2(1 -1)
2(1 -1)
2(1 -1)
2(1 -1)
2(1 -1)
2(1 -1)
2(1 -1)
2(1 -1)
2(1 -1)
2(1 -1)
2(1 -1)
2(1 -1)
2(1 -1)
2(1 -1)
2(1 -1)
2(1 -1)
2(1 -1)
2(1 -1)
2(1 -1)
2(1 -1)
2(1 -1)
2(1 -1)
2(1 -1)
2(1 -1)
2(1 -1)
2(1 -1)
2(1 -1)
2(1 -1)
2(1 -1)
2(1 -1)
2(1 -1)
2(1 -1)
2(1 -1)
2(1 -1)
2(1 -1)
2(1 -1)
2(1 -1)
2(1 -1)
2(1 -1)
2(1 -1)
2(1 -1)
2(1 -1)
2(1 -1)
2(1 -1)
2(1 -1)
2(1 -1)
2(1 -1)
2(1 -1)
2(1 -1)
2(1 -1)
2(1 -1)
2(1 -1)
2(1 -1)
2(1 -1)
2(1 -1)
2(1 -1)
2(1 -1)
2(1 -1)
2(1 -1)
2(1 -1)
2(1 -1)
2(1 -1)
2(1 -1)
2(1 -1)
2(1 -1)
2(1 -1)
2(1 -1)
2(1 -1)
2(1 -1)
2(1 -1)
2(1 -1)
2(1 -1)
2(1 -1)
2(1 -1)
2(1 -1)
2(1 -1)
2(1 -1)
2(1 -1)
2(1 -1)
2(1 -1)
)

// edgeNormals

100
(
2(0 1)
2(0 2)
2(3 4)
2(3 5)
2(6 7)
2(8 9)
2(8 10)
2(11 12)
2(13 14)
2(15 16)
2(17 18)
2(17 19)
2(20 21)
2(22 23)
2(24 25)
2(24 26)
2(27 28)
2(27 29)
2(30 31)
2(32 33)
2(32 34)
2(35 36)
2(35 37)
2(38 39)
2(40 41)
2(42 43)
2(44 45)
2(46 47)
2(48 49)
2(50 51)
2(52 53)
2(52 54)
2(55 56)
2(55 57)
2(58 59)
2(60 61)
2(60 62)
2(63 64)
2(65 66)
2(67 68)
2(69 70)
2(71 72)
2(71 73)
2(74 75)
2(74 76)
2(77 78)
2(77 79)
2(80 81)
2(82 83)
2(84 85)
2(86 87)
2(86 88)
2(89 90)
2(89 91)
2(92 93)
2(94 95)
2(94 96)
2(97 98)
2(99 100)
2(101 102)
2(103 104)
2(103 105)
2(106 107)
2(108 109)
2(110 111)
2(110 112)
2(113 114)
2(113 115)
2(116 117)
2(118 119)
2(118 120)
2(121 122)
2(121 123)
2(124 125)
2(126 127)
2(128 129)
2(130 131)
2(132 133)
2(134 135)
2(136 137)
2(138 139)
2(138 140)
2(141 142)
2(141 143)
2(144 145)
2(146 147)
2(146 148)
2(149 150)
2(151 152)
2(153 154)
2(155 156)
2(157 158)
2(157 159)
2(160 161)
2(160 162)
2(163 164)
2(163 165)
2(166 167)
2(168 169)
2(170 171)
)

// featurePointNormals
0()
// featurePointEdges
0()
// regionEdges
0()


// ************************************************************************* //
