/*--------------------------------*- C++ -*----------------------------------*\
| =========                 |                                                 |
| \\      /  F ield         | OpenFOAM: The Open Source CFD Toolbox           |
|  \\    /   O peration     | Version:  2412                                  |
|   \\  /    A nd           | Website:  www.openfoam.com                      |
|    \\/     M anipulation  |                                                 |
\*---------------------------------------------------------------------------*/
FoamFile
{
    version     2.0;
    format      ascii;
    arch        "LSB;label=32;scalar=64";
    class       featureEdgeMesh;
    location    "constant/triSurface";
    object      MeshRefinement.eMesh;
}
// * * * * * * * * * * * * * * * * * * * * * * * * * * * * * * * * * * * * * //


// points:

142
(
(1.5 3 3.6700000016662e-16)
(1.49413025379181 3 -0.132570162415504)
(1.49413025379181 -3 -0.132570162415504)
(1.5 -3 3.6700000016662e-16)
(1.47656691074371 3 -0.264102786779404)
(1.47656691074371 -3 -0.264102786779404)
(1.44744741916656 3 -0.393568426370621)
(1.4069995880127 3 -0.519953846931458)
(1.44744741916656 -3 -0.393568426370621)
(1.35554015636444 3 -0.642269968986511)
(1.4069995880127 -3 -0.519953846931458)
(1.35554015636444 -3 -0.642269968986511)
(1.2934718132019 3 -0.759559452533722)
(1.22128021717072 3 -0.870904386043549)
(1.2934718132019 -3 -0.759559452533722)
(1.22128021717072 -3 -0.870904386043549)
(1.13953065872192 3 -0.975433230400085)
(1.13953065872192 -3 -0.975433230400085)
(1.04886257648468 3 -1.07232797145844)
(1.04886257648468 -3 -1.07232797145844)
(0.94998574256897 3 -1.16083037853241)
(0.94998574256897 -3 -1.16083037853241)
(0.843673944473267 3 -1.24024772644043)
(0.843673944473267 -3 -1.24024772644043)
(0.730759263038635 3 -1.30995833873749)
(0.730759263038635 -3 -1.30995833873749)
(0.61212545633316 3 -1.36941683292389)
(0.61212545633316 -3 -1.36941683292389)
(0.488700866699219 -3 -1.41815769672394)
(0.488700866699219 3 -1.41815769672394)
(0.36145156621933 3 -1.45579969882965)
(0.36145156621933 -3 -1.45579969882965)
(0.231373399496078 -3 -1.48204791545868)
(0.231373399496078 3 -1.48204791545868)
(0.0994844362139702 3 -1.496697306633)
(0.0994844362139702 -3 -1.496697306633)
(-0.0331831313669682 3 -1.49963295459747)
(-0.0331831313669682 -3 -1.49963295459747)
(-0.165590986609459 3 -1.49083185195923)
(-0.296702891588211 3 -1.47036302089691)
(-0.165590986609459 -3 -1.49083185195923)
(-0.296702891588211 -3 -1.47036302089691)
(-0.42549267411232 3 -1.43838655948639)
(-0.55095237493515 3 -1.39515280723572)
(-0.42549267411232 -3 -1.43838655948639)
(-0.55095237493515 -3 -1.39515280723572)
(-0.672100186347961 3 -1.34100008010864)
(-0.672100186347961 -3 -1.34100008010864)
(-0.7879878282547 3 -1.27635228633881)
(-0.7879878282547 -3 -1.27635228633881)
(-0.897708475589752 3 -1.20171523094177)
(-0.897708475589752 -3 -1.20171523094177)
(-1.00040328502655 3 -1.11767303943634)
(-1.00040328502655 -3 -1.11767303943634)
(-1.09526860713959 3 -1.02488374710083)
(-1.09526860713959 -3 -1.02488374710083)
(-1.18156206607819 3 -0.924073219299316)
(-1.18156206607819 -3 -0.924073219299316)
(-1.25860798358917 3 -0.816030561923981)
(-1.25860798358917 -3 -0.816030561923981)
(-1.32580375671387 3 -0.701601445674896)
(-1.32580375671387 -3 -0.701601445674896)
(-1.38262319564819 3 -0.581681251525879)
(-1.38262319564819 -3 -0.581681251525879)
(-1.42862176895142 3 -0.457208663225174)
(-1.42862176895142 -3 -0.457208663225174)
(-1.46343946456909 3 -0.329157769680023)
(-1.46343946456909 -3 -0.329157769680023)
(-1.4868038892746 3 -0.198530778288841)
(-1.4868038892746 -3 -0.198530778288841)
(-1.49853181838989 3 -0.066350020468235)
(-1.49853181838989 3 0.066350020468235)
(-1.49853181838989 -3 -0.066350020468235)
(-1.49853181838989 -3 0.066350020468235)
(-1.4868038892746 3 0.198530778288841)
(-1.4868038892746 -3 0.198530778288841)
(-1.46343946456909 3 0.329157769680023)
(-1.46343946456909 -3 0.329157769680023)
(-1.42862176895142 -3 0.457208663225174)
(-1.42862176895142 3 0.457208663225174)
(-1.38262319564819 -3 0.581681251525879)
(-1.38262319564819 3 0.581681251525879)
(-1.32580375671387 -3 0.701601445674896)
(-1.32580375671387 3 0.701601445674896)
(-1.25860798358917 -3 0.816030561923981)
(-1.25860798358917 3 0.816030561923981)
(-1.18156206607819 -3 0.924073219299316)
(-1.18156206607819 3 0.924073219299316)
(-1.09526860713959 -3 1.02488374710083)
(-1.09526860713959 3 1.02488374710083)
(-1.00040328502655 -3 1.11767303943634)
(-1.00040328502655 3 1.11767303943634)
(-0.897708475589752 -3 1.20171523094177)
(-0.897708475589752 3 1.20171523094177)
(-0.7879878282547 -3 1.27635228633881)
(-0.7879878282547 3 1.27635228633881)
(-0.672100186347961 -3 1.34100008010864)
(-0.672100186347961 3 1.34100008010864)
(-0.55095237493515 -3 1.39515280723572)
(-0.55095237493515 3 1.39515280723572)
(-0.42549267411232 -3 1.43838655948639)
(-0.42549267411232 3 1.43838655948639)
(-0.296702891588211 -3 1.47036302089691)
(-0.296702891588211 3 1.47036302089691)
(-0.165590986609459 3 1.49083185195923)
(-0.165590986609459 -3 1.49083185195923)
(-0.0331831313669682 3 1.49963295459747)
(0.0994844362139702 3 1.496697306633)
(-0.0331831313669682 -3 1.49963295459747)
(0.0994844362139702 -3 1.496697306633)
(0.231373399496078 3 1.48204791545868)
(0.231373399496078 -3 1.48204791545868)
(0.36145156621933 3 1.45579969882965)
(0.36145156621933 -3 1.45579969882965)
(0.488700866699219 3 1.41815769672394)
(0.61212545633316 3 1.36941683292389)
(0.488700866699219 -3 1.41815769672394)
(0.61212545633316 -3 1.36941683292389)
(0.730759263038635 3 1.30995833873749)
(0.730759263038635 -3 1.30995833873749)
(0.843673944473267 3 1.24024772644043)
(0.843673944473267 -3 1.24024772644043)
(0.94998574256897 3 1.16083037853241)
(0.94998574256897 -3 1.16083037853241)
(1.04886257648468 3 1.07232797145844)
(1.13953065872192 3 0.975433230400085)
(1.04886257648468 -3 1.07232797145844)
(1.13953065872192 -3 0.975433230400085)
(1.22128021717072 -3 0.870904386043549)
(1.22128021717072 3 0.870904386043549)
(1.2934718132019 -3 0.759559452533722)
(1.2934718132019 3 0.759559452533722)
(1.35554015636444 3 0.642269968986511)
(1.35554015636444 -3 0.642269968986511)
(1.4069995880127 -3 0.519953846931458)
(1.4069995880127 3 0.519953846931458)
(1.44744741916656 -3 0.393568426370621)
(1.44744741916656 3 0.393568426370621)
(1.47656691074371 3 0.264102786779404)
(1.47656691074371 -3 0.264102786779404)
(1.49413025379181 3 0.132570162415504)
(1.49413025379181 -3 0.132570162415504)
)


// edges:

142
(
(0 1)
(2 3)
(1 4)
(5 2)
(4 6)
(6 7)
(8 5)
(7 9)
(10 8)
(11 10)
(9 12)
(12 13)
(14 11)
(15 14)
(13 16)
(17 15)
(16 18)
(19 17)
(18 20)
(21 19)
(20 22)
(23 21)
(22 24)
(25 23)
(24 26)
(27 25)
(28 27)
(26 29)
(29 30)
(31 28)
(32 31)
(30 33)
(33 34)
(35 32)
(34 36)
(37 35)
(36 38)
(38 39)
(40 37)
(41 40)
(39 42)
(42 43)
(44 41)
(45 44)
(43 46)
(47 45)
(46 48)
(49 47)
(48 50)
(51 49)
(50 52)
(53 51)
(52 54)
(55 53)
(54 56)
(57 55)
(56 58)
(59 57)
(58 60)
(61 59)
(60 62)
(63 61)
(62 64)
(65 63)
(64 66)
(67 65)
(66 68)
(69 67)
(68 70)
(70 71)
(72 69)
(73 72)
(71 74)
(75 73)
(74 76)
(77 75)
(78 77)
(76 79)
(80 78)
(79 81)
(82 80)
(81 83)
(84 82)
(83 85)
(86 84)
(85 87)
(88 86)
(87 89)
(90 88)
(89 91)
(92 90)
(91 93)
(94 92)
(93 95)
(96 94)
(95 97)
(98 96)
(97 99)
(100 98)
(99 101)
(102 100)
(101 103)
(103 104)
(105 102)
(104 106)
(106 107)
(108 105)
(109 108)
(107 110)
(111 109)
(110 112)
(113 111)
(112 114)
(114 115)
(116 113)
(117 116)
(115 118)
(119 117)
(118 120)
(121 119)
(120 122)
(123 121)
(122 124)
(124 125)
(126 123)
(127 126)
(128 127)
(125 129)
(130 128)
(129 131)
(131 132)
(133 130)
(134 133)
(132 135)
(136 134)
(135 137)
(137 138)
(139 136)
(138 140)
(141 139)
(140 0)
(3 141)
)

// * * * * * * * * * * * * * * * * * * * * * * * * * * * * * * * * * * * * * //


// ************************************************************************* //
